<routes xmlns:xsi="http://www.w3.org/2001/XMLSchema-instance" xsi:noNamespaceSchemaLocation="http://sumo.dlr.de/xsd/routes_file.xsd">
    <trip id="1" depart="1.00" from="-14026436" to="-14026251#1" />
    <trip id="3" depart="3.00" from="682553774#2" to="-14024835#2" />
    <trip id="4" depart="4.00" from="-683043814#4" to="-14019622#1" />
    <trip id="7" depart="7.00" from="14025708#1" to="14024684#7" />
    <trip id="9" depart="9.00" from="14027172#2" to="-14019569#3" />
    <trip id="12" depart="12.00" from="683047943#1" to="-14027562#4" />
    <trip id="19" depart="19.00" from="682551442#2" to="14024875" />
    <trip id="20" depart="20.00" from="14026100#0" to="-14024684#0" />
    <trip id="21" depart="21.00" from="-14026100#4" to="-14026504#9" />
    <trip id="22" depart="22.00" from="-14024710#1" to="-14026251#6" />
    <trip id="28" depart="28.00" from="-14025894#0" to="14026251#9" />
    <trip id="29" depart="29.00" from="-14025708#0" to="-682551445#2" />
    <trip id="31" depart="31.00" from="14024694#0" to="14026096#0" />
    <trip id="32" depart="32.00" from="625743593" to="14026504#7" />
    <trip id="33" depart="33.00" from="-14026251#0" to="-14019623" />
    <trip id="34" depart="34.00" from="-14026937#1" to="-14026436" />
    <trip id="35" depart="35.00" from="-14026096#5" to="683044783#4" />
    <trip id="36" depart="36.00" from="682551442#9" to="-14027172#0" />
    <trip id="39" depart="39.00" from="-14026336#5" to="-14026326#2" />
    <trip id="41" depart="41.00" from="14025159#0" to="682553777#1" />
    <trip id="42" depart="42.00" from="-682553774#2" to="-14026100#4" />
    <trip id="43" depart="43.00" from="683270320" to="14019622#1" />
    <trip id="46" depart="46.00" from="14026768#1" to="-683044783#1" />
    <trip id="49" depart="49.00" from="683047946#5" to="682551442#14" />
    <trip id="51" depart="51.00" from="14026024#1" to="14024684#3" />
    <trip id="52" depart="52.00" from="-14026336#6" to="14025532" />
    <trip id="55" depart="55.00" from="682551442#9" to="-14026336#8" />
    <trip id="56" depart="56.00" from="14019569#6" to="-14026007#1" />
    <trip id="57" depart="57.00" from="682553785" to="682551442#6" />
    <trip id="59" depart="59.00" from="14025222#11" to="-14025701#0" />
    <trip id="60" depart="60.00" from="14026466" to="14024684#4" />
    <trip id="65" depart="65.00" from="-14026768#1" to="-14024684#5" />
    <trip id="66" depart="66.00" from="682551445#0" to="683044783#6" />
    <trip id="68" depart="68.00" from="-14024694#1" to="14026436" />
    <trip id="69" depart="69.00" from="14026504#1" to="-14025222#5" />
    <trip id="70" depart="70.00" from="-683050822#3" to="14024694#0" />
    <trip id="72" depart="72.00" from="-683043814#5" to="-14026100#0" />
    <trip id="74" depart="74.00" from="-14026096#0" to="-14026937#3" />
    <trip id="75" depart="75.00" from="683270315" to="14025708#1" />
    <trip id="77" depart="77.00" from="-14025222#11" to="-14026251#2" />
    <trip id="79" depart="79.00" from="-14026251#1" to="-14026100#4" />
    <trip id="82" depart="82.00" from="682551442#13" to="-14024694#2" />
    <trip id="83" depart="83.00" from="-14026251#5" to="14026007#0" />
    <trip id="87" depart="87.00" from="14027172#1" to="-14026024#1" />
    <trip id="88" depart="88.00" from="-14025159#0" to="-683044783#6" />
    <trip id="90" depart="90.00" from="14026251#9" to="14026017" />
    <trip id="91" depart="91.00" from="683050822#2" to="-14025159#3" />
    <trip id="92" depart="92.00" from="-682553779#1" to="-14027562#5" />
    <trip id="95" depart="95.00" from="-683043814#4" to="-14026504#4" />
    <trip id="96" depart="96.00" from="-14026326#0" to="683043814#0" />
    <trip id="100" depart="100.00" from="683047946#4" to="683043814#2" />
    <trip id="103" depart="103.00" from="-682553774#3" to="-14024684#6" />
    <trip id="104" depart="104.00" from="-682551442#7" to="683050822#3" />
    <trip id="106" depart="106.00" from="-683047946#1" to="-683044783#2" />
    <trip id="109" depart="109.00" from="-14025399" to="-14026676#2" />
    <trip id="110" depart="110.00" from="683047946#4" to="14025005" />
    <trip id="113" depart="113.00" from="14019569#8" to="682551442#10" />
    <trip id="114" depart="114.00" from="-14025635" to="683047946#0" />
    <trip id="117" depart="117.00" from="-14026251#3" to="-14025222#13" />
    <trip id="118" depart="118.00" from="682553774#1" to="-14026326#2" />
    <trip id="119" depart="119.00" from="14025159#6" to="14025222#7" />
    <trip id="121" depart="121.00" from="14019624" to="683044783#0" />
    <trip id="124" depart="124.00" from="14026010" to="-14026768#1" />
    <trip id="128" depart="128.00" from="-14024694#3" to="-14026100#1" />
    <trip id="131" depart="131.00" from="-682551442#2" to="-14025708#1" />
    <trip id="132" depart="132.00" from="625743585#1" to="14026100#0" />
    <trip id="133" depart="133.00" from="14025222#13" to="683050822#4" />
    <trip id="138" depart="138.00" from="-14025159#6" to="14024694#1" />
    <trip id="139" depart="139.00" from="-14026336#9" to="14025222#11" />
    <trip id="141" depart="141.00" from="14025398#1" to="-14026336#9" />
    <trip id="146" depart="146.00" from="14025398#2" to="-14026336#8" />
    <trip id="147" depart="147.00" from="14026336#1" to="14024694#1" />
    <trip id="148" depart="148.00" from="-683044783#0" to="-14019569#5" />
    <trip id="149" depart="149.00" from="-14024696#0" to="682551446#0" />
    <trip id="152" depart="152.00" from="-14025398#2" to="-14025222#5" />
    <trip id="153" depart="153.00" from="-14026768#1" to="682553777#1" />
    <trip id="154" depart="154.00" from="14026834" to="682551442#14" />
    <trip id="157" depart="157.00" from="14026504#9" to="682551446#1" />
    <trip id="160" depart="160.00" from="682551442#3" to="683050817" />
    <trip id="162" depart="162.00" from="-14019571#3" to="14026326#2" />
    <trip id="163" depart="163.00" from="-14027172#5" to="683043814#4" />
    <trip id="164" depart="164.00" from="14026937#3" to="682551442#3" />
    <trip id="165" depart="165.00" from="14027172#2" to="-14026351" />
    <trip id="168" depart="168.00" from="-14026100#2" to="14027172#5" />
    <trip id="169" depart="169.00" from="-683047946#4" to="-14026937#0" />
    <trip id="170" depart="170.00" from="14026834" to="-14026251#3" />
    <trip id="173" depart="173.00" from="683047946#3" to="-14026504#4" />
    <trip id="174" depart="174.00" from="14025399" to="-682553779#2" />
    <trip id="175" depart="175.00" from="683050822#0" to="14024684#2" />
    <trip id="176" depart="176.00" from="683044783#2" to="-14025222#10" />
    <trip id="179" depart="179.00" from="-14025159#6" to="-683047939#1" />
    <trip id="180" depart="180.00" from="14026251#8" to="-14026937#4" />
    <trip id="181" depart="181.00" from="14025222#10" to="14019622#2" />
    <trip id="182" depart="182.00" from="-682551445#1" to="14024875" />
    <trip id="185" depart="185.00" from="14024684#10" to="14026251#3" />
    <trip id="186" depart="186.00" from="14026336#1" to="14026007#1" />
    <trip id="188" depart="188.00" from="14025944#2" to="-14027562#0" />
    <trip id="189" depart="189.00" from="-14026937#0" to="625743596" />
    <trip id="191" depart="191.00" from="-14026768#2" to="-683043814#1" />
    <trip id="192" depart="192.00" from="-682553779#1" to="-14026676#2" />
    <trip id="193" depart="193.00" from="-14025222#3" to="-683044783#0" />
    <trip id="194" depart="194.00" from="683044783#3" to="14026019#1" />
    <trip id="195" depart="195.00" from="682553779#1" to="14025222#5" />
    <trip id="197" depart="197.00" from="-14019569#0" to="-14026504#8" />
    <trip id="199" depart="199.00" from="14025894#1" to="-683050822#1" />
    <trip id="206" depart="206.00" from="14026010" to="-14026251#2" />
    <trip id="208" depart="208.00" from="-14026251#8" to="-683270315" />
    <trip id="209" depart="209.00" from="682551442#0" to="-14024696#0" />
    <trip id="210" depart="210.00" from="-683043814#0" to="14025398#0" />
    <trip id="213" depart="213.00" from="14025894#1" to="-14019569#2" />
    <trip id="215" depart="215.00" from="-14025159#6" to="-683044783#3" />
    <trip id="216" depart="216.00" from="-14025894#3" to="683047943#1" />
    <trip id="217" depart="217.00" from="14019622#2" to="-14024684#10" />
    <trip id="218" depart="218.00" from="-14026326#0" to="625743596" />
    <trip id="219" depart="219.00" from="-683047946#2" to="14026937#2" />
    <trip id="221" depart="221.00" from="14025159#6" to="683047939#1" />
    <trip id="224" depart="224.00" from="14027562#5" to="14024684#9" />
    <trip id="227" depart="227.00" from="-14026314" to="14025399" />
    <trip id="233" depart="233.00" from="-14026251#1" to="14026096#5" />
    <trip id="234" depart="234.00" from="14026100#1" to="-14024684#9" />
    <trip id="235" depart="235.00" from="-683043808#0" to="14024684#6" />
    <trip id="237" depart="237.00" from="-683043814#3" to="682553780" />
    <trip id="238" depart="238.00" from="14025159#0" to="14026096#6" />
    <trip id="239" depart="239.00" from="682551442#12" to="14026504#1" />
    <trip id="241" depart="241.00" from="-625743585#2" to="14026336#8" />
    <trip id="242" depart="242.00" from="682551442#10" to="683047942#1" />
    <trip id="244" depart="244.00" from="14024684#5" to="14025222#10" />
    <trip id="247" depart="247.00" from="-14027172#7" to="14026024#0" />
    <trip id="249" depart="249.00" from="-683050817" to="-14025222#5" />
    <trip id="250" depart="250.00" from="14025222#6" to="-14019622#0" />
    <trip id="252" depart="252.00" from="-14019622#0" to="14025635" />
    <trip id="254" depart="254.00" from="-14024684#1" to="-682551445#1" />
    <trip id="255" depart="255.00" from="-14026096#6" to="-14027172#6" />
    <trip id="257" depart="257.00" from="14026336#7" to="625743585#0" />
    <trip id="258" depart="258.00" from="-14026326#1" to="-14024710#3" />
    <trip id="260" depart="260.00" from="683270327" to="-682551442#1" />
    <trip id="262" depart="262.00" from="14025708#2" to="14026336#8" />
    <trip id="263" depart="263.00" from="683047939#1" to="-14026096#3" />
    <trip id="264" depart="264.00" from="-14019571#0" to="-14025701#0" />
    <trip id="265" depart="265.00" from="-14025222#2" to="14026007#1" />
    <trip id="266" depart="266.00" from="14024696#1" to="-14026100#3" />
    <trip id="267" depart="267.00" from="14026096#8" to="14026504#2" />
    <trip id="272" depart="272.00" from="-14026834" to="14026019#1" />
    <trip id="277" depart="277.00" from="682551442#0" to="14025222#1" />
    <trip id="279" depart="279.00" from="14026530" to="-625743592" />
    <trip id="280" depart="280.00" from="-683044783#1" to="-682551442#7" />
    <trip id="281" depart="281.00" from="14019569#9" to="-625743585#0" />
    <trip id="283" depart="283.00" from="-14025159#5" to="683047946#0" />
    <trip id="287" depart="287.00" from="-14026336#8" to="14027172#1" />
    <trip id="291" depart="291.00" from="14027562#5" to="-14024835#2" />
    <trip id="293" depart="293.00" from="-683047946#6" to="14025222#2" />
    <trip id="295" depart="295.00" from="682551442#1" to="-14026017" />
    <trip id="296" depart="296.00" from="-14026096#6" to="14026937#0" />
    <trip id="297" depart="297.00" from="-14027562#2" to="682551445#1" />
    <trip id="298" depart="298.00" from="14026096#9" to="-14026504#2" />
    <trip id="299" depart="299.00" from="-14019569#5" to="683047939#0" />
    <trip id="300" depart="300.00" from="-14024835#0" to="14026251#4" />
    <trip id="302" depart="302.00" from="14026096#3" to="14025701#1" />
    <trip id="303" depart="303.00" from="14019569#1" to="14026768#2" />
    <trip id="305" depart="305.00" from="14026096#4" to="-14026937#0" />
    <trip id="307" depart="307.00" from="14024408#0" to="-683044783#3" />
    <trip id="310" depart="310.00" from="-14026326#1" to="-14025222#13" />
    <trip id="311" depart="311.00" from="-14026019#1" to="-14025222#12" />
    <trip id="312" depart="312.00" from="14024684#0" to="14026466" />
    <trip id="314" depart="314.00" from="-683270320" to="14026251#6" />
    <trip id="317" depart="317.00" from="-14026019#1" to="-14026251#3" />
    <trip id="318" depart="318.00" from="-14025944#1" to="-14019569#7" />
    <trip id="320" depart="320.00" from="683047946#7" to="14024694#2" />
    <trip id="324" depart="324.00" from="-683050822#0" to="-683047943#0" />
    <trip id="326" depart="326.00" from="683044783#3" to="-683270320" />
    <trip id="327" depart="327.00" from="14027562#0" to="-683043808#0" />
    <trip id="328" depart="328.00" from="-14024694#3" to="14025398#0" />
    <trip id="329" depart="329.00" from="-14024684#2" to="-14025398#4" />
    <trip id="330" depart="330.00" from="14024696#1" to="-14026834" />
    <trip id="334" depart="334.00" from="14019624" to="-683047946#3" />
    <trip id="338" depart="338.00" from="14026336#0" to="683044783#6" />
    <trip id="340" depart="340.00" from="14025944#0" to="-14025708#1" />
    <trip id="341" depart="341.00" from="-14025894#1" to="-14024710#0" />
    <trip id="343" depart="343.00" from="14025159#5" to="-14026530" />
    <trip id="344" depart="344.00" from="-14026251#1" to="14026100#2" />
    <trip id="346" depart="346.00" from="14026096#1" to="683043814#1" />
    <trip id="347" depart="347.00" from="14026676#2" to="14025386#0" />
    <trip id="349" depart="349.00" from="-683043814#6" to="14024684#7" />
    <trip id="350" depart="350.00" from="14025708#0" to="682553782" />
    <trip id="354" depart="354.00" from="-14026504#5" to="-14025222#3" />
    <trip id="356" depart="356.00" from="683044783#4" to="14019571#0" />
    <trip id="357" depart="357.00" from="14019569#3" to="-14024710#3" />
    <trip id="360" depart="360.00" from="-14024835#3" to="683047946#0" />
    <trip id="361" depart="361.00" from="625743585#2" to="14024835#4" />
    <trip id="362" depart="362.00" from="683047939#1" to="683270327" />
    <trip id="365" depart="365.00" from="-683050822#0" to="14025708#2" />
    <trip id="366" depart="366.00" from="683043808#0" to="-14026017" />
    <trip id="367" depart="367.00" from="14025159#1" to="14025398#3" />
    <trip id="369" depart="369.00" from="-625743585#0" to="-14027562#2" />
    <trip id="371" depart="371.00" from="-14027172#4" to="14026096#5" />
    <trip id="372" depart="372.00" from="-14026504#5" to="683044783#5" />
    <trip id="373" depart="373.00" from="14027172#4" to="14024694#0" />
    <trip id="374" depart="374.00" from="-683047946#1" to="-14027172#0" />
    <trip id="375" depart="375.00" from="-14027172#0" to="683047946#5" />
    <trip id="376" depart="376.00" from="-682553779#2" to="14019624" />
    <trip id="377" depart="377.00" from="683050822#4" to="14025894#1" />
    <trip id="378" depart="378.00" from="14024684#3" to="-683043814#4" />
    <trip id="379" depart="379.00" from="-14026010" to="-682551442#2" />
    <trip id="381" depart="381.00" from="14026436" to="-14026096#5" />
    <trip id="382" depart="382.00" from="14024684#6" to="683043814#3" />
    <trip id="383" depart="383.00" from="-683044783#6" to="14026096#7" />
    <trip id="384" depart="384.00" from="-14025222#11" to="683047946#6" />
    <trip id="385" depart="385.00" from="14025222#11" to="-14026314" />
    <trip id="386" depart="386.00" from="-14025635" to="14024694#0" />
    <trip id="387" depart="387.00" from="14024684#8" to="-14025159#0" />
    <trip id="388" depart="388.00" from="683270305" to="682553786" />
    <trip id="389" depart="389.00" from="-683047946#4" to="-14025222#11" />
    <trip id="392" depart="392.00" from="-14026351" to="625743585#1" />
    <trip id="394" depart="394.00" from="14024684#7" to="-682551446#1" />
    <trip id="399" depart="399.00" from="14019571#0" to="14027172#7" />
    <trip id="400" depart="400.00" from="-14026504#2" to="-14026768#0" />
    <trip id="401" depart="401.00" from="14025159#2" to="683270327" />
    <trip id="403" depart="403.00" from="14024684#10" to="-625743585#2" />
    <trip id="404" depart="404.00" from="14024684#8" to="14024684#6" />
    <trip id="405" depart="405.00" from="-683047946#1" to="-14027172#4" />
    <trip id="407" depart="407.00" from="14024710#3" to="-14026251#6" />
    <trip id="409" depart="409.00" from="14026336#3" to="14026100#1" />
    <trip id="411" depart="411.00" from="14025944#2" to="14027562#0" />
    <trip id="412" depart="412.00" from="683050822#0" to="14019569#8" />
    <trip id="413" depart="413.00" from="-14021132#0" to="14019571#1" />
    <trip id="415" depart="415.00" from="682551442#8" to="-683047943#0" />
    <trip id="423" depart="423.00" from="-682551442#8" to="-14027172#1" />
    <trip id="425" depart="425.00" from="682551442#7" to="-14021132#0" />
    <trip id="433" depart="433.00" from="-14026504#7" to="-682551442#9" />
    <trip id="434" depart="434.00" from="-14025398#0" to="14024684#1" />
    <trip id="435" depart="435.00" from="14024710#0" to="14026768#1" />
    <trip id="436" depart="436.00" from="-14025708#3" to="-14024710#2" />
    <trip id="437" depart="437.00" from="682551442#6" to="14025222#7" />
    <trip id="439" depart="439.00" from="-14025386#1" to="-683050817" />
    <trip id="441" depart="441.00" from="-14019569#5" to="14026937#4" />
    <trip id="442" depart="442.00" from="682553779#0" to="14026019#1" />
    <trip id="444" depart="444.00" from="-14027562#4" to="14025159#4" />
    <trip id="445" depart="445.00" from="14025398#3" to="-683044783#3" />
    <trip id="449" depart="449.00" from="14024710#3" to="14024835#4" />
    <trip id="450" depart="450.00" from="683270311" to="-14026676#1" />
    <trip id="452" depart="452.00" from="-14026351" to="14024710#3" />
    <trip id="453" depart="453.00" from="14026096#0" to="14026336#3" />
    <trip id="454" depart="454.00" from="-14024684#1" to="14025222#12" />
    <trip id="458" depart="458.00" from="14025398#2" to="14025222#8" />
    <trip id="459" depart="459.00" from="14026019#1" to="14026251#4" />
    <trip id="461" depart="461.00" from="14025386#0" to="682553779#2" />
    <trip id="464" depart="464.00" from="14026314" to="-14025005" />
    <trip id="466" depart="466.00" from="-14025894#2" to="-14025222#7" />
    <trip id="468" depart="468.00" from="14024408#0" to="682553786" />
    <trip id="470" depart="470.00" from="14027562#2" to="14019569#0" />
    <trip id="471" depart="471.00" from="14027172#0" to="14026336#4" />
    <trip id="472" depart="472.00" from="-14027562#1" to="-14025222#10" />
    <trip id="474" depart="474.00" from="683047946#3" to="682551442#14" />
    <trip id="475" depart="475.00" from="14026251#6" to="683050822#0" />
    <trip id="476" depart="476.00" from="683047946#3" to="14026937#4" />
    <trip id="477" depart="477.00" from="-682551442#13" to="14026768#1" />
    <trip id="479" depart="479.00" from="-683047946#1" to="14026010" />
    <trip id="482" depart="482.00" from="-14025159#6" to="-14026251#7" />
    <trip id="483" depart="483.00" from="-14019571#3" to="682551446#1" />
    <trip id="487" depart="487.00" from="-14026676#1" to="-683043814#1" />
    <trip id="498" depart="498.00" from="-682551442#3" to="-683047943#2" />
    <trip id="500" depart="500.00" from="-14025159#2" to="14026096#0" />
    <trip id="502" depart="502.00" from="-682551442#1" to="-682553779#2" />
    <trip id="503" depart="503.00" from="-14026017" to="-14025222#2" />
    <trip id="505" depart="505.00" from="14025944#1" to="14025635" />
    <trip id="506" depart="506.00" from="14025159#7" to="-14019571#1" />
    <trip id="507" depart="507.00" from="14026676#1" to="-14026326#1" />
    <trip id="510" depart="510.00" from="-14026096#3" to="-14026100#2" />
    <trip id="511" depart="511.00" from="682551442#6" to="-14027172#7" />
    <trip id="515" depart="515.00" from="-14026326#1" to="-14026005" />
    <trip id="516" depart="516.00" from="14025944#0" to="-14019571#3" />
    <trip id="519" depart="519.00" from="-14025894#2" to="-14024684#3" />
    <trip id="521" depart="521.00" from="14026336#3" to="-683270315" />
    <trip id="523" depart="523.00" from="-14025159#7" to="14019571#2" />
    <trip id="524" depart="524.00" from="683044783#5" to="-14024408#1" />
    <trip id="527" depart="527.00" from="683047946#1" to="-14024684#7" />
    <trip id="528" depart="528.00" from="-683270305" to="-683043808#0" />
    <trip id="529" depart="529.00" from="14026096#1" to="14019569#5" />
    <trip id="533" depart="533.00" from="14025398#0" to="14024684#9" />
    <trip id="534" depart="534.00" from="-14027172#1" to="683270315" />
    <trip id="535" depart="535.00" from="14021132#2" to="-683047946#4" />
    <trip id="538" depart="538.00" from="14025708#2" to="14026504#3" />
    <trip id="539" depart="539.00" from="14026251#4" to="-14026100#2" />
    <trip id="541" depart="541.00" from="-14027562#1" to="-683047946#4" />
    <trip id="543" depart="543.00" from="-683044783#0" to="14025944#1" />
    <trip id="544" depart="544.00" from="-682551442#5" to="-14025701#0" />
    <trip id="546" depart="546.00" from="14027562#5" to="-14025159#0" />
    <trip id="547" depart="547.00" from="-14025159#0" to="14026336#0" />
    <trip id="548" depart="548.00" from="14027172#3" to="14024694#3" />
    <trip id="549" depart="549.00" from="14025159#1" to="14024710#1" />
    <trip id="552" depart="552.00" from="14026336#6" to="682551442#5" />
    <trip id="557" depart="557.00" from="-14025159#6" to="625743595" />
    <trip id="558" depart="558.00" from="-682551442#14" to="14026466" />
    <trip id="559" depart="559.00" from="14024835#1" to="14027172#0" />
    <trip id="562" depart="562.00" from="14025399" to="-14019622#0" />
    <trip id="563" depart="563.00" from="683043814#4" to="14027562#4" />
    <trip id="564" depart="564.00" from="-14026336#7" to="-14026010" />
    <trip id="565" depart="565.00" from="14026096#9" to="-14026937#2" />
    <trip id="567" depart="567.00" from="682551442#6" to="14024710#3" />
    <trip id="570" depart="570.00" from="14026336#4" to="-14026100#2" />
    <trip id="571" depart="571.00" from="-683043814#3" to="-625743585#0" />
    <trip id="579" depart="579.00" from="14026336#8" to="-14025222#1" />
    <trip id="580" depart="580.00" from="-683044783#2" to="-14026504#6" />
    <trip id="583" depart="583.00" from="-682553774#0" to="14025222#0" />
    <trip id="587" depart="587.00" from="-14019569#4" to="14026336#4" />
    <trip id="588" depart="588.00" from="-14025894#2" to="-682551445#2" />
    <trip id="590" depart="590.00" from="625743585#0" to="14027172#0" />
    <trip id="591" depart="591.00" from="-14024694#2" to="682551442#2" />
    <trip id="594" depart="594.00" from="14024835#2" to="14024835#3" />
    <trip id="595" depart="595.00" from="14026100#3" to="-683043814#6" />
    <trip id="596" depart="596.00" from="-14025222#0" to="-14019571#1" />
    <trip id="599" depart="599.00" from="683043808#2" to="-14024835#3" />
    <trip id="600" depart="600.00" from="625743594" to="-14026326#1" />
    <trip id="602" depart="602.00" from="-682553774#0" to="-14026937#2" />
    <trip id="603" depart="603.00" from="-14027562#1" to="-14027562#2" />
    <trip id="604" depart="604.00" from="-14025708#2" to="14019622#2" />
    <trip id="610" depart="610.00" from="14025222#0" to="14026436" />
    <trip id="612" depart="612.00" from="14026504#5" to="14019569#7" />
    <trip id="613" depart="613.00" from="14026336#8" to="14026436" />
    <trip id="614" depart="614.00" from="-683047943#1" to="683043814#1" />
    <trip id="618" depart="618.00" from="-14024694#0" to="-683047943#1" />
    <trip id="620" depart="620.00" from="-14024684#4" to="14019622#0" />
    <trip id="621" depart="621.00" from="-14026834" to="-683047946#3" />
    <trip id="625" depart="625.00" from="14019571#0" to="-683050822#0" />
    <trip id="628" depart="628.00" from="14027172#2" to="14025708#2" />
    <trip id="630" depart="630.00" from="-14025398#3" to="-14024684#8" />
    <trip id="631" depart="631.00" from="-14025159#4" to="682553778" />
    <trip id="632" depart="632.00" from="-14027562#3" to="14026251#1" />
    <trip id="633" depart="633.00" from="14019569#8" to="-14025944#2" />
    <trip id="635" depart="635.00" from="-683047939#0" to="14021132#2" />
    <trip id="637" depart="637.00" from="-14026504#2" to="-683043814#1" />
    <trip id="640" depart="640.00" from="-14024684#9" to="-14025159#1" />
    <trip id="643" depart="643.00" from="682553779#2" to="682551442#8" />
    <trip id="645" depart="645.00" from="-14025386#0" to="-682551442#1" />
    <trip id="648" depart="648.00" from="683044783#1" to="-14026937#2" />
    <trip id="650" depart="650.00" from="14027172#4" to="14026007#1" />
    <trip id="651" depart="651.00" from="14027562#4" to="14026336#0" />
    <trip id="653" depart="653.00" from="14025701#1" to="-683044783#2" />
    <trip id="654" depart="654.00" from="-682551442#11" to="-682551442#2" />
    <trip id="656" depart="656.00" from="683047939#0" to="14019569#3" />
    <trip id="657" depart="657.00" from="-14026100#4" to="-14025386#0" />
    <trip id="658" depart="658.00" from="-14024696#1" to="625743594" />
    <trip id="659" depart="659.00" from="-14025159#3" to="14026504#4" />
    <trip id="661" depart="661.00" from="-14021132#1" to="-14027562#4" />
    <trip id="663" depart="663.00" from="-682551442#6" to="-14025894#0" />
    <trip id="665" depart="665.00" from="14027172#1" to="-14025894#2" />
    <trip id="669" depart="669.00" from="14026336#5" to="-683047946#2" />
    <trip id="670" depart="670.00" from="14024408#1" to="-14026937#2" />
    <trip id="672" depart="672.00" from="625743585#1" to="-682551442#5" />
    <trip id="673" depart="673.00" from="683044783#6" to="683050822#2" />
    <trip id="675" depart="675.00" from="-682551442#9" to="14024486" />
    <trip id="677" depart="677.00" from="14026937#2" to="-14025386#1" />
    <trip id="678" depart="678.00" from="-14026326#0" to="14025635" />
    <trip id="679" depart="679.00" from="682551442#8" to="14024694#2" />
    <trip id="681" depart="681.00" from="682551442#1" to="-14026504#7" />
    <trip id="682" depart="682.00" from="14026504#0" to="-14026504#0" />
    <trip id="683" depart="683.00" from="682553779#2" to="-14025398#3" />
    <trip id="685" depart="685.00" from="-14026100#1" to="-683047946#3" />
    <trip id="686" depart="686.00" from="-625743585#1" to="-14019622#0" />
    <trip id="687" depart="687.00" from="-14024684#2" to="14019571#1" />
    <trip id="691" depart="691.00" from="14025708#1" to="14026768#1" />
    <trip id="692" depart="692.00" from="-14025222#8" to="-14026504#8" />
    <trip id="694" depart="694.00" from="-14025222#9" to="14026100#1" />
    <trip id="695" depart="695.00" from="-683047943#1" to="-14019569#2" />
    <trip id="696" depart="696.00" from="-14024710#1" to="-14026336#4" />
    <trip id="698" depart="698.00" from="14026251#8" to="14024486" />
    <trip id="699" depart="699.00" from="-14025159#8" to="-14026504#9" />
    <trip id="703" depart="703.00" from="682553779#2" to="14025159#9" />
    <trip id="704" depart="704.00" from="-14019569#8" to="14019624" />
    <trip id="705" depart="705.00" from="-14026251#7" to="-14025398#1" />
    <trip id="706" depart="706.00" from="-683044783#1" to="14025222#4" />
    <trip id="707" depart="707.00" from="-14026251#6" to="-683043814#5" />
    <trip id="708" depart="708.00" from="14025944#2" to="-14024835#1" />
    <trip id="709" depart="709.00" from="683047946#7" to="-14024694#1" />
    <trip id="710" depart="710.00" from="14021132#0" to="14019622#0" />
    <trip id="718" depart="718.00" from="-14027172#5" to="-14024408#1" />
    <trip id="720" depart="720.00" from="-14025894#2" to="14026504#8" />
    <trip id="722" depart="722.00" from="14025386#1" to="14027172#3" />
    <trip id="724" depart="724.00" from="-683047946#2" to="-14026676#0" />
    <trip id="725" depart="725.00" from="-14024408#1" to="-14026096#3" />
    <trip id="730" depart="730.00" from="-682551442#0" to="14026504#9" />
    <trip id="732" depart="732.00" from="-14025222#13" to="-682551442#5" />
    <trip id="734" depart="734.00" from="682553776" to="-682551447" />
    <trip id="736" depart="736.00" from="14019569#5" to="683043814#1" />
    <trip id="737" depart="737.00" from="14019622#2" to="14026937#2" />
    <trip id="739" depart="739.00" from="14025222#0" to="14027562#0" />
    <trip id="742" depart="742.00" from="-14026768#0" to="14025222#10" />
    <trip id="744" depart="744.00" from="-625743585#2" to="-14024408#0" />
    <trip id="749" depart="749.00" from="-682551442#12" to="14026937#2" />
    <trip id="750" depart="750.00" from="14026024#0" to="683047942#0" />
    <trip id="751" depart="751.00" from="-14025386#1" to="14025222#13" />
    <trip id="753" depart="753.00" from="-14024684#9" to="14026504#8" />
    <trip id="754" depart="754.00" from="-682551442#13" to="-682551446#0" />
    <trip id="755" depart="755.00" from="14024710#1" to="14025222#11" />
    <trip id="756" depart="756.00" from="14026024#0" to="683047939#0" />
    <trip id="757" depart="757.00" from="-682551442#4" to="14026504#0" />
    <trip id="758" depart="758.00" from="14024835#1" to="14024684#0" />
    <trip id="760" depart="760.00" from="-14026326#0" to="-14025222#1" />
    <trip id="761" depart="761.00" from="14026326#1" to="14019569#9" />
    <trip id="763" depart="763.00" from="-14026336#4" to="-14026336#7" />
    <trip id="764" depart="764.00" from="-683047942#1" to="683270320" />
    <trip id="766" depart="766.00" from="14019569#1" to="-14025222#2" />
    <trip id="769" depart="769.00" from="-14024835#1" to="14026024#1" />
    <trip id="771" depart="771.00" from="-14027562#5" to="-14024684#9" />
    <trip id="773" depart="773.00" from="682551442#1" to="14026100#4" />
    <trip id="775" depart="775.00" from="14026768#2" to="14019622#1" />
    <trip id="778" depart="778.00" from="-14019622#0" to="14024694#2" />
    <trip id="781" depart="781.00" from="-14024835#1" to="-14026937#2" />
    <trip id="782" depart="782.00" from="683270327" to="14026251#3" />