<routes xmlns:xsi="http://www.w3.org/2001/XMLSchema-instance" xsi:noNamespaceSchemaLocation="http://sumo.dlr.de/xsd/routes_file.xsd">
    <trip id="0" depart="0.00" from="14025398#4" to="-14019571#3" />
    <trip id="1" depart="1.00" from="-14026436" to="-14026251#1" />
    <trip id="4" depart="4.00" from="-683043814#4" to="-14019622#1" />
    <trip id="6" depart="6.00" from="-14019622#0" to="-14026096#3" />
    <trip id="14" depart="14.00" from="625743596" to="14025222#10" />
    <trip id="18" depart="18.00" from="14027562#4" to="14025222#6" />
    <trip id="24" depart="24.00" from="14025398#2" to="-682551442#4" />
    <trip id="25" depart="25.00" from="-682551442#3" to="-14026096#9" />
    <trip id="27" depart="27.00" from="14025708#0" to="14025222#13" />
    <trip id="28" depart="28.00" from="-14025894#0" to="14026251#9" />
    <trip id="30" depart="30.00" from="683056203" to="14025532" />
    <trip id="32" depart="32.00" from="625743593" to="14026504#7" />
    <trip id="35" depart="35.00" from="-14026096#5" to="683044783#4" />
    <trip id="36" depart="36.00" from="682551442#9" to="-14027172#0" />
    <trip id="37" depart="37.00" from="14025894#1" to="-682553779#0" />
    <trip id="38" depart="38.00" from="682553786" to="-683047946#7" />
    <trip id="41" depart="41.00" from="14025159#0" to="682553777#1" />
    <trip id="42" depart="42.00" from="-682553774#2" to="-14026100#4" />
    <trip id="45" depart="45.00" from="-14025159#7" to="14025386#1" />
    <trip id="46" depart="46.00" from="14026768#1" to="-683044783#1" />
    <trip id="47" depart="47.00" from="-14024684#7" to="-682551446#0" />
    <trip id="48" depart="48.00" from="683270315" to="14024684#0" />
    <trip id="52" depart="52.00" from="-14026336#6" to="14025532" />
    <trip id="53" depart="53.00" from="-14025159#8" to="-683047939#1" />
    <trip id="55" depart="55.00" from="682551442#9" to="-14026336#8" />
    <trip id="58" depart="58.00" from="-14026530" to="14025399" />
    <trip id="59" depart="59.00" from="14025222#11" to="-14025701#0" />
    <trip id="60" depart="60.00" from="14026466" to="14024684#4" />
    <trip id="61" depart="61.00" from="14026504#8" to="14024684#0" />
    <trip id="63" depart="63.00" from="-14019571#0" to="683043814#4" />
    <trip id="65" depart="65.00" from="-14026768#1" to="-14024684#5" />
    <trip id="66" depart="66.00" from="682551445#0" to="683044783#6" />
    <trip id="68" depart="68.00" from="-14024694#1" to="14026436" />
    <trip id="76" depart="76.00" from="-683044783#6" to="14020103" />
    <trip id="78" depart="78.00" from="-14027562#0" to="14025159#4" />
    <trip id="79" depart="79.00" from="-14026251#1" to="-14026100#4" />
    <trip id="81" depart="81.00" from="-14026251#0" to="682553780" />
    <trip id="88" depart="88.00" from="-14025159#0" to="-683044783#6" />
    <trip id="89" depart="89.00" from="-683043814#5" to="-683050822#2" />
    <trip id="90" depart="90.00" from="14026251#9" to="14026017" />
    <trip id="91" depart="91.00" from="683050822#2" to="-14025159#3" />
    <trip id="92" depart="92.00" from="-682553779#1" to="-14027562#5" />
    <trip id="93" depart="93.00" from="682551442#14" to="-14026336#1" />
    <trip id="97" depart="97.00" from="-683047942#0" to="682551442#14" />
    <trip id="100" depart="100.00" from="683047946#4" to="683043814#2" />
    <trip id="102" depart="102.00" from="-683270320" to="-14026100#1" />
    <trip id="103" depart="103.00" from="-682553774#3" to="-14024684#6" />
    <trip id="104" depart="104.00" from="-682551442#7" to="683050822#3" />
    <trip id="106" depart="106.00" from="-683047946#1" to="-683044783#2" />
    <trip id="107" depart="107.00" from="683047943#1" to="683270315" />
    <trip id="109" depart="109.00" from="-14025399" to="-14026676#2" />
    <trip id="110" depart="110.00" from="683047946#4" to="14025005" />
    <trip id="113" depart="113.00" from="14019569#8" to="682551442#10" />
    <trip id="115" depart="115.00" from="-14024710#1" to="-14026019#1" />
    <trip id="116" depart="116.00" from="14025159#6" to="14026019#0" />
    <trip id="117" depart="117.00" from="-14026251#3" to="-14025222#13" />
    <trip id="118" depart="118.00" from="682553774#1" to="-14026326#2" />
    <trip id="119" depart="119.00" from="14025159#6" to="14025222#7" />
    <trip id="124" depart="124.00" from="14026010" to="-14026768#1" />
    <trip id="125" depart="125.00" from="-14026937#2" to="14026336#7" />
    <trip id="126" depart="126.00" from="-14024694#2" to="-683047946#7" />
    <trip id="132" depart="132.00" from="625743585#1" to="14026100#0" />
    <trip id="136" depart="136.00" from="14025944#1" to="683044783#2" />
    <trip id="137" depart="137.00" from="-14025222#6" to="-14025222#10" />
    <trip id="138" depart="138.00" from="-14025159#6" to="14024694#1" />
    <trip id="139" depart="139.00" from="-14026336#9" to="14025222#11" />
    <trip id="140" depart="140.00" from="14026251#2" to="-14026096#5" />
    <trip id="144" depart="144.00" from="-683043814#5" to="-14026504#3" />
    <trip id="145" depart="145.00" from="-14019569#1" to="14026504#4" />
    <trip id="147" depart="147.00" from="14026336#1" to="14024694#1" />
    <trip id="148" depart="148.00" from="-683044783#0" to="-14019569#5" />
    <trip id="151" depart="151.00" from="625743585#1" to="14025159#1" />
    <trip id="154" depart="154.00" from="14026834" to="682551442#14" />
    <trip id="155" depart="155.00" from="682553777#1" to="-14026096#9" />
    <trip id="157" depart="157.00" from="14026504#9" to="682551446#1" />
    <trip id="158" depart="158.00" from="-683029995" to="14025222#8" />
    <trip id="159" depart="159.00" from="-14025399" to="683043814#4" />
    <trip id="160" depart="160.00" from="682551442#3" to="683050817" />
    <trip id="162" depart="162.00" from="-14019571#3" to="14026326#2" />
    <trip id="165" depart="165.00" from="14027172#2" to="-14026351" />
    <trip id="166" depart="166.00" from="14026676#2" to="-14025159#8" />
    <trip id="167" depart="167.00" from="682551442#7" to="682551442#13" />
    <trip id="169" depart="169.00" from="-683047946#4" to="-14026937#0" />
    <trip id="171" depart="171.00" from="-14019571#2" to="-14026096#0" />
    <trip id="173" depart="173.00" from="683047946#3" to="-14026504#4" />
    <trip id="174" depart="174.00" from="14025399" to="-682553779#2" />
    <trip id="175" depart="175.00" from="683050822#0" to="14024684#2" />
    <trip id="178" depart="178.00" from="683047946#0" to="-14026351" />
    <trip id="182" depart="182.00" from="-682551445#1" to="14024875" />
    <trip id="183" depart="183.00" from="-14026336#0" to="14026100#3" />
    <trip id="184" depart="184.00" from="-14019569#0" to="683043814#2" />
    <trip id="187" depart="187.00" from="-682551442#12" to="-14024694#2" />
    <trip id="192" depart="192.00" from="-682553779#1" to="-14026676#2" />
    <trip id="193" depart="193.00" from="-14025222#3" to="-683044783#0" />
    <trip id="194" depart="194.00" from="683044783#3" to="14026019#1" />
    <trip id="195" depart="195.00" from="682553779#1" to="14025222#5" />
    <trip id="200" depart="200.00" from="-683047939#1" to="-14026100#1" />
    <trip id="202" depart="202.00" from="14026834" to="-14025944#0" />
    <trip id="203" depart="203.00" from="-14024835#0" to="14019624" />
    <trip id="204" depart="204.00" from="14025398#0" to="-14027562#3" />
    <trip id="205" depart="205.00" from="14027172#6" to="14026336#6" />
    <trip id="208" depart="208.00" from="-14026251#8" to="-683270315" />
    <trip id="212" depart="212.00" from="14019569#3" to="-14026326#1" />
    <trip id="214" depart="214.00" from="14026336#6" to="14026504#3" />
    <trip id="215" depart="215.00" from="-14025159#6" to="-683044783#3" />
    <trip id="216" depart="216.00" from="-14025894#3" to="683047943#1" />
    <trip id="219" depart="219.00" from="-683047946#2" to="14026937#2" />
    <trip id="222" depart="222.00" from="682553774#1" to="14025222#3" />
    <trip id="224" depart="224.00" from="14027562#5" to="14024684#9" />
    <trip id="225" depart="225.00" from="682553777#1" to="14026336#2" />
    <trip id="226" depart="226.00" from="-683050822#2" to="-14026336#6" />
    <trip id="227" depart="227.00" from="-14026314" to="14025399" />
    <trip id="228" depart="228.00" from="14026504#1" to="14021132#1" />
    <trip id="229" depart="229.00" from="14025222#9" to="-14026504#1" />
    <trip id="234" depart="234.00" from="14026100#1" to="-14024684#9" />
    <trip id="235" depart="235.00" from="-683043808#0" to="14024684#6" />
    <trip id="237" depart="237.00" from="-683043814#3" to="682553780" />
    <trip id="238" depart="238.00" from="14025159#0" to="14026096#6" />
    <trip id="243" depart="243.00" from="-683043814#3" to="14026336#4" />
    <trip id="244" depart="244.00" from="14024684#5" to="14025222#10" />
    <trip id="245" depart="245.00" from="-14026100#0" to="-14026100#4" />
    <trip id="248" depart="248.00" from="-682553779#2" to="-14025894#2" />
    <trip id="249" depart="249.00" from="-683050817" to="-14025222#5" />
    <trip id="254" depart="254.00" from="-14024684#1" to="-682551445#1" />
    <trip id="255" depart="255.00" from="-14026096#6" to="-14027172#6" />
    <trip id="256" depart="256.00" from="14026466" to="-682551445#1" />
    <trip id="258" depart="258.00" from="-14026326#1" to="-14024710#3" />
    <trip id="262" depart="262.00" from="14025708#2" to="14026336#8" />
    <trip id="263" depart="263.00" from="683047939#1" to="-14026096#3" />
    <trip id="264" depart="264.00" from="-14019571#0" to="-14025701#0" />
    <trip id="267" depart="267.00" from="14026096#8" to="14026504#2" />
    <trip id="268" depart="268.00" from="-14025708#2" to="14025222#12" />
    <trip id="269" depart="269.00" from="14026336#5" to="-14025222#10" />
    <trip id="271" depart="271.00" from="-14025159#6" to="-14019571#3" />
    <trip id="272" depart="272.00" from="-14026834" to="14026019#1" />
    <trip id="273" depart="273.00" from="683047943#1" to="-682553779#1" />
    <trip id="274" depart="274.00" from="14026251#1" to="-14024710#0" />
    <trip id="277" depart="277.00" from="682551442#0" to="14025222#1" />
    <trip id="278" depart="278.00" from="-14025222#11" to="683050822#2" />
    <trip id="279" depart="279.00" from="14026530" to="-625743592" />
    <trip id="280" depart="280.00" from="-683044783#1" to="-682551442#7" />
    <trip id="281" depart="281.00" from="14019569#9" to="-625743585#0" />
    <trip id="282" depart="282.00" from="682551442#0" to="14027562#0" />
    <trip id="283" depart="283.00" from="-14025159#5" to="683047946#0" />
    <trip id="284" depart="284.00" from="14025398#2" to="14027562#4" />
    <trip id="285" depart="285.00" from="14026100#2" to="-683047939#1" />
    <trip id="287" depart="287.00" from="-14026336#8" to="14027172#1" />
    <trip id="288" depart="288.00" from="14024684#1" to="14019569#1" />
    <trip id="291" depart="291.00" from="14027562#5" to="-14024835#2" />
    <trip id="292" depart="292.00" from="682551445#2" to="-14026326#1" />
    <trip id="293" depart="293.00" from="-683047946#6" to="14025222#2" />
    <trip id="294" depart="294.00" from="-682551442#7" to="-14019622#1" />
    <trip id="295" depart="295.00" from="682551442#1" to="-14026017" />
    <trip id="299" depart="299.00" from="-14019569#5" to="683047939#0" />
    <trip id="303" depart="303.00" from="14019569#1" to="14026768#2" />
    <trip id="304" depart="304.00" from="-14024835#4" to="-14026251#0" />
    <trip id="306" depart="306.00" from="14025005" to="-683270311" />
    <trip id="308" depart="308.00" from="14026336#4" to="-14027562#0" />
    <trip id="311" depart="311.00" from="-14026019#1" to="-14025222#12" />
    <trip id="314" depart="314.00" from="-683270320" to="14026251#6" />
    <trip id="315" depart="315.00" from="683050817" to="14024408#0" />
    <trip id="317" depart="317.00" from="-14026019#1" to="-14026251#3" />
    <trip id="318" depart="318.00" from="-14025944#1" to="-14019569#7" />
    <trip id="319" depart="319.00" from="14024408#1" to="-14026504#1" />
    <trip id="320" depart="320.00" from="683047946#7" to="14024694#2" />
    <trip id="321" depart="321.00" from="14026096#7" to="-14025222#4" />
    <trip id="322" depart="322.00" from="682551442#5" to="14019569#5" />
    <trip id="323" depart="323.00" from="682551442#7" to="14024835#4" />
    <trip id="325" depart="325.00" from="-14026007#0" to="-14024684#2" />
    <trip id="327" depart="327.00" from="14027562#0" to="-683043808#0" />
    <trip id="329" depart="329.00" from="-14024684#2" to="-14025398#4" />
    <trip id="330" depart="330.00" from="14024696#1" to="-14026834" />
    <trip id="332" depart="332.00" from="14026504#0" to="14025222#12" />
    <trip id="333" depart="333.00" from="14026768#1" to="-14026251#2" />
    <trip id="335" depart="335.00" from="-683047939#1" to="682551442#14" />
    <trip id="337" depart="337.00" from="14025222#6" to="14025222#2" />
    <trip id="338" depart="338.00" from="14026336#0" to="683044783#6" />
    <trip id="341" depart="341.00" from="-14025894#1" to="-14024710#0" />
    <trip id="342" depart="342.00" from="-14019569#1" to="-683047946#3" />
    <trip id="343" depart="343.00" from="14025159#5" to="-14026530" />
    <trip id="344" depart="344.00" from="-14026251#1" to="14026100#2" />
    <trip id="345" depart="345.00" from="14026100#0" to="-683047946#4" />
    <trip id="346" depart="346.00" from="14026096#1" to="683043814#1" />
    <trip id="347" depart="347.00" from="14026676#2" to="14025386#0" />
    <trip id="348" depart="348.00" from="14025944#0" to="683043814#6" />
    <trip id="350" depart="350.00" from="14025708#0" to="682553782" />
    <trip id="353" depart="353.00" from="14026336#5" to="14024835#1" />
    <trip id="354" depart="354.00" from="-14026504#5" to="-14025222#3" />
    <trip id="357" depart="357.00" from="14019569#3" to="-14024710#3" />
    <trip id="358" depart="358.00" from="-14021132#2" to="-683047939#0" />
    <trip id="359" depart="359.00" from="-14027172#0" to="-14026336#1" />
    <trip id="364" depart="364.00" from="-14021132#2" to="14026336#9" />
    <trip id="367" depart="367.00" from="14025159#1" to="14025398#3" />
    <trip id="369" depart="369.00" from="-625743585#0" to="-14027562#2" />
    <trip id="372" depart="372.00" from="-14026504#5" to="683044783#5" />
    <trip id="374" depart="374.00" from="-683047946#1" to="-14027172#0" />
    <trip id="377" depart="377.00" from="683050822#4" to="14025894#1" />
    <trip id="378" depart="378.00" from="14024684#3" to="-683043814#4" />
    <trip id="381" depart="381.00" from="14026436" to="-14026096#5" />
    <trip id="384" depart="384.00" from="-14025222#11" to="683047946#6" />
    <trip id="385" depart="385.00" from="14025222#11" to="-14026314" />
    <trip id="388" depart="388.00" from="683270305" to="682553786" />
    <trip id="395" depart="395.00" from="683043814#0" to="14019622#0" />
    <trip id="396" depart="396.00" from="682551445#1" to="682551442#3" />
    <trip id="398" depart="398.00" from="-683043814#0" to="683043814#6" />
    <trip id="402" depart="402.00" from="14019569#0" to="-14025398#4" />
    <trip id="403" depart="403.00" from="14024684#10" to="-625743585#2" />
    <trip id="404" depart="404.00" from="14024684#8" to="14024684#6" />
    <trip id="407" depart="407.00" from="14024710#3" to="-14026251#6" />
    <trip id="412" depart="412.00" from="683050822#0" to="14019569#8" />
    <trip id="413" depart="413.00" from="-14021132#0" to="14019571#1" />
    <trip id="414" depart="414.00" from="14025159#3" to="682551442#6" />
    <trip id="420" depart="420.00" from="-14027562#1" to="14026096#4" />
    <trip id="421" depart="421.00" from="14025708#1" to="682551442#1" />
    <trip id="422" depart="422.00" from="682551442#10" to="682551442#13" />
    <trip id="423" depart="423.00" from="-682551442#8" to="-14027172#1" />
    <trip id="424" depart="424.00" from="14026251#3" to="14026436" />
    <trip id="425" depart="425.00" from="682551442#7" to="-14021132#0" />
    <trip id="428" depart="428.00" from="14026336#4" to="-683047939#1" />
    <trip id="430" depart="430.00" from="682551442#7" to="-683047943#2" />
    <trip id="432" depart="432.00" from="-14024486" to="14026834" />
    <trip id="433" depart="433.00" from="-14026504#7" to="-682551442#9" />
    <trip id="434" depart="434.00" from="-14025398#0" to="14024684#1" />
    <trip id="435" depart="435.00" from="14024710#0" to="14026768#1" />
    <trip id="436" depart="436.00" from="-14025708#3" to="-14024710#2" />
    <trip id="438" depart="438.00" from="-14026251#6" to="682553786" />
    <trip id="440" depart="440.00" from="-14026326#2" to="-14026336#4" />
    <trip id="443" depart="443.00" from="-14025635" to="-683047943#1" />
    <trip id="444" depart="444.00" from="-14027562#4" to="14025159#4" />
    <trip id="445" depart="445.00" from="14025398#3" to="-683044783#3" />
    <trip id="450" depart="450.00" from="683270311" to="-14026676#1" />
    <trip id="451" depart="451.00" from="683050819" to="14025894#2" />
    <trip id="452" depart="452.00" from="-14026351" to="14024710#3" />
    <trip id="453" depart="453.00" from="14026096#0" to="14026336#3" />
    <trip id="455" depart="455.00" from="14019569#4" to="682553779#2" />
    <trip id="458" depart="458.00" from="14025398#2" to="14025222#8" />
    <trip id="459" depart="459.00" from="14026019#1" to="14026251#4" />
    <trip id="460" depart="460.00" from="14025894#3" to="625743590" />
    <trip id="462" depart="462.00" from="14025701#1" to="-14026937#2" />
    <trip id="464" depart="464.00" from="14026314" to="-14025005" />
    <trip id="466" depart="466.00" from="-14025894#2" to="-14025222#7" />
    <trip id="469" depart="469.00" from="14027562#5" to="-14026336#5" />
    <trip id="470" depart="470.00" from="14027562#2" to="14019569#0" />
    <trip id="471" depart="471.00" from="14027172#0" to="14026336#4" />
    <trip id="472" depart="472.00" from="-14027562#1" to="-14025222#10" />
    <trip id="475" depart="475.00" from="14026251#6" to="683050822#0" />
    <trip id="476" depart="476.00" from="683047946#3" to="14026937#4" />
    <trip id="477" depart="477.00" from="-682551442#13" to="14026768#1" />
    <trip id="481" depart="481.00" from="14027562#0" to="683044783#3" />
    <trip id="483" depart="483.00" from="-14019571#3" to="682551446#1" />
    <trip id="484" depart="484.00" from="14024696#0" to="683029995" />
    <trip id="485" depart="485.00" from="-14026100#1" to="-14024684#8" />
    <trip id="486" depart="486.00" from="14027562#1" to="682553782" />
    <trip id="487" depart="487.00" from="-14026676#1" to="-683043814#1" />
    <trip id="488" depart="488.00" from="-14025222#9" to="683044783#6" />
    <trip id="491" depart="491.00" from="-14025222#7" to="-683047946#4" />
    <trip id="492" depart="492.00" from="14026007#1" to="14026336#2" />
    <trip id="493" depart="493.00" from="683044783#6" to="-683044783#0" />
    <trip id="494" depart="494.00" from="14026336#2" to="-14025701#1" />
    <trip id="495" depart="495.00" from="-683043814#0" to="-14025159#3" />
    <trip id="496" depart="496.00" from="14019569#0" to="-683043814#1" />
    <trip id="498" depart="498.00" from="-682551442#3" to="-683047943#2" />
    <trip id="499" depart="499.00" from="683047939#1" to="682551442#11" />
    <trip id="501" depart="501.00" from="14024684#4" to="683050819" />
    <trip id="504" depart="504.00" from="625743596" to="-683047946#5" />
    <trip id="506" depart="506.00" from="14025159#7" to="-14019571#1" />
    <trip id="507" depart="507.00" from="14026676#1" to="-14026326#1" />
    <trip id="508" depart="508.00" from="-14025222#2" to="14024710#3" />
    <trip id="510" depart="510.00" from="-14026096#3" to="-14026100#2" />
    <trip id="513" depart="513.00" from="-14019569#1" to="682551442#13" />
    <trip id="514" depart="514.00" from="-14025398#0" to="-14025222#6" />
    <trip id="515" depart="515.00" from="-14026326#1" to="-14026005" />
    <trip id="516" depart="516.00" from="14025944#0" to="-14019571#3" />
    <trip id="524" depart="524.00" from="683044783#5" to="-14024408#1" />
    <trip id="526" depart="526.00" from="14019623" to="-683047946#7" />
    <trip id="527" depart="527.00" from="683047946#1" to="-14024684#7" />
    <trip id="532" depart="532.00" from="-14024684#9" to="-14026504#2" />
    <trip id="533" depart="533.00" from="14025398#0" to="14024684#9" />
    <trip id="535" depart="535.00" from="14021132#2" to="-683047946#4" />
    <trip id="536" depart="536.00" from="14025222#1" to="-14025159#4" />
    <trip id="537" depart="537.00" from="14026096#9" to="682551442#10" />
    <trip id="539" depart="539.00" from="14026251#4" to="-14026100#2" />
    <trip id="543" depart="543.00" from="-683044783#0" to="14025944#1" />
    <trip id="544" depart="544.00" from="-682551442#5" to="-14025701#0" />
    <trip id="545" depart="545.00" from="683043814#0" to="-14024694#0" />
    <trip id="546" depart="546.00" from="14027562#5" to="-14025159#0" />
    <trip id="547" depart="547.00" from="-14025159#0" to="14026336#0" />
    <trip id="550" depart="550.00" from="-14027172#4" to="-14025222#2" />
    <trip id="552" depart="552.00" from="14026336#6" to="682551442#5" />
    <trip id="553" depart="553.00" from="14026251#4" to="683047946#4" />
    <trip id="554" depart="554.00" from="14025159#9" to="-682551442#10" />
    <trip id="555" depart="555.00" from="14024835#3" to="-14026100#0" />
    <trip id="557" depart="557.00" from="-14025159#6" to="625743595" />
    <trip id="558" depart="558.00" from="-682551442#14" to="14026466" />
    <trip id="559" depart="559.00" from="14024835#1" to="14027172#0" />
    <trip id="560" depart="560.00" from="625743595" to="683047946#7" />
    <trip id="561" depart="561.00" from="14027172#6" to="14025222#4" />
    <trip id="562" depart="562.00" from="14025399" to="-14019622#0" />
    <trip id="564" depart="564.00" from="-14026336#7" to="-14026010" />
    <trip id="567" depart="567.00" from="682551442#6" to="14024710#3" />
    <trip id="569" depart="569.00" from="14025398#0" to="-14019622#2" />
    <trip id="570" depart="570.00" from="14026336#4" to="-14026100#2" />
    <trip id="572" depart="572.00" from="-682551442#2" to="14026251#5" />
    <trip id="574" depart="574.00" from="-14024835#0" to="-14024684#3" />
    <trip id="575" depart="575.00" from="-14025635" to="14025222#6" />
    <trip id="576" depart="576.00" from="14026017" to="-14026504#0" />
    <trip id="577" depart="577.00" from="14025944#1" to="14019569#2" />
    <trip id="578" depart="578.00" from="-683047939#1" to="-14026504#1" />
    <trip id="580" depart="580.00" from="-683044783#2" to="-14026504#6" />
    <trip id="581" depart="581.00" from="14026019#1" to="14019569#3" />
    <trip id="584" depart="584.00" from="-14019569#4" to="-14026768#2" />
    <trip id="585" depart="585.00" from="-14026096#6" to="-14025386#0" />
    <trip id="587" depart="587.00" from="-14019569#4" to="14026336#4" />
    <trip id="590" depart="590.00" from="625743585#0" to="14027172#0" />
    <trip id="593" depart="593.00" from="683043808#2" to="682551442#2" />
    <trip id="596" depart="596.00" from="-14025222#0" to="-14019571#1" />
    <trip id="598" depart="598.00" from="14025222#4" to="625743585#0" />
    <trip id="599" depart="599.00" from="683043808#2" to="-14024835#3" />
    <trip id="600" depart="600.00" from="625743594" to="-14026326#1" />
    <trip id="601" depart="601.00" from="14025159#3" to="14024408#0" />
    <trip id="603" depart="603.00" from="-14027562#1" to="-14027562#2" />
    <trip id="604" depart="604.00" from="-14025708#2" to="14019622#2" />
    <trip id="610" depart="610.00" from="14025222#0" to="14026436" />
    <trip id="613" depart="613.00" from="14026336#8" to="14026436" />
    <trip id="617" depart="617.00" from="14025222#9" to="-14025399" />
    <trip id="618" depart="618.00" from="-14024694#0" to="-683047943#1" />
    <trip id="621" depart="621.00" from="-14026834" to="-683047946#3" />
    <trip id="623" depart="623.00" from="-14024696#1" to="682551442#3" />
    <trip id="624" depart="624.00" from="682551442#11" to="14025222#5" />
    <trip id="625" depart="625.00" from="14019571#0" to="-683050822#0" />
    <trip id="626" depart="626.00" from="14024684#9" to="14026768#1" />
    <trip id="627" depart="627.00" from="682553777#0" to="-683047946#2" />
    <trip id="628" depart="628.00" from="14027172#2" to="14025708#2" />
    <trip id="630" depart="630.00" from="-14025398#3" to="-14024684#8" />
    <trip id="631" depart="631.00" from="-14025159#4" to="682553778" />
    <trip id="632" depart="632.00" from="-14027562#3" to="14026251#1" />
    <trip id="633" depart="633.00" from="14019569#8" to="-14025944#2" />
    <trip id="635" depart="635.00" from="-683047939#0" to="14021132#2" />
    <trip id="636" depart="636.00" from="-14025635" to="-682551442#8" />
    <trip id="637" depart="637.00" from="-14026504#2" to="-683043814#1" />
    <trip id="641" depart="641.00" from="14026019#1" to="-14026504#7" />
    <trip id="644" depart="644.00" from="-14027172#6" to="14025159#1" />
    <trip id="645" depart="645.00" from="-14025386#0" to="-682551442#1" />
    <trip id="646" depart="646.00" from="683047946#3" to="14026096#7" />
    <trip id="647" depart="647.00" from="-682551446#1" to="14025159#8" />
    <trip id="650" depart="650.00" from="14027172#4" to="14026007#1" />
    <trip id="651" depart="651.00" from="14027562#4" to="14026336#0" />
    <trip id="652" depart="652.00" from="14026096#0" to="14024408#1" />
    <trip id="653" depart="653.00" from="14025701#1" to="-683044783#2" />
    <trip id="654" depart="654.00" from="-682551442#11" to="-682551442#2" />
    <trip id="656" depart="656.00" from="683047939#0" to="14019569#3" />
    <trip id="659" depart="659.00" from="-14025159#3" to="14026504#4" />
    <trip id="661" depart="661.00" from="-14021132#1" to="-14027562#4" />
    <trip id="662" depart="662.00" from="14026504#1" to="-14025222#7" />
    <trip id="665" depart="665.00" from="14027172#1" to="-14025894#2" />
    <trip id="667" depart="667.00" from="14026019#0" to="-14026251#9" />
    <trip id="670" depart="670.00" from="14024408#1" to="-14026937#2" />
    <trip id="671" depart="671.00" from="14027172#1" to="-683050822#3" />
    <trip id="676" depart="676.00" from="683047946#2" to="14027172#6" />
    <trip id="677" depart="677.00" from="14026937#2" to="-14025386#1" />
    <trip id="678" depart="678.00" from="-14026326#0" to="14025635" />
    <trip id="681" depart="681.00" from="682551442#1" to="-14026504#7" />
    <trip id="683" depart="683.00" from="682553779#2" to="-14025398#3" />
    <trip id="684" depart="684.00" from="-683044783#6" to="683044783#6" />
    <trip id="686" depart="686.00" from="-625743585#1" to="-14019622#0" />
    <trip id="696" depart="696.00" from="-14024710#1" to="-14026336#4" />
    <trip id="700" depart="700.00" from="-14026676#1" to="-14024684#1" />
    <trip id="705" depart="705.00" from="-14026251#7" to="-14025398#1" />
    <trip id="714" depart="714.00" from="-14026326#2" to="-14019569#8" />
    <trip id="717" depart="717.00" from="14026504#4" to="14026326#1" />
    <trip id="718" depart="718.00" from="-14027172#5" to="-14024408#1" />
    <trip id="719" depart="719.00" from="14024684#5" to="14027172#4" />
    <trip id="720" depart="720.00" from="-14025894#2" to="14026504#8" />
    <trip id="721" depart="721.00" from="-683047946#6" to="14026096#6" />
    <trip id="725" depart="725.00" from="-14024408#1" to="-14026096#3" />
    <trip id="728" depart="728.00" from="14024684#3" to="-14026336#3" />
    <trip id="730" depart="730.00" from="-682551442#0" to="14026504#9" />
    <trip id="732" depart="732.00" from="-14025222#13" to="-682551442#5" />
    <trip id="733" depart="733.00" from="682553774#0" to="14026336#2" />
    <trip id="734" depart="734.00" from="682553776" to="-682551447" />
    <trip id="736" depart="736.00" from="14019569#5" to="683043814#1" />
    <trip id="739" depart="739.00" from="14025222#0" to="14027562#0" />
    <trip id="740" depart="740.00" from="14024684#4" to="-14027172#3" />
    <trip id="743" depart="743.00" from="-683043814#6" to="14026096#3" />
    <trip id="745" depart="745.00" from="682551442#6" to="-682551442#10" />
    <trip id="748" depart="748.00" from="-14024696#0" to="14025399" />
    <trip id="749" depart="749.00" from="-682551442#12" to="14026937#2" />
    <trip id="752" depart="752.00" from="14026530" to="-14019624" />
    <trip id="753" depart="753.00" from="-14024684#9" to="14026504#8" />
    <trip id="755" depart="755.00" from="14024710#1" to="14025222#11" />
    <trip id="760" depart="760.00" from="-14026326#0" to="-14025222#1" />
    <trip id="762" depart="762.00" from="-682551445#2" to="14024710#1" />
    <trip id="763" depart="763.00" from="-14026336#4" to="-14026336#7" />
    <trip id="765" depart="765.00" from="-14026504#3" to="683043808#0" />
    <trip id="766" depart="766.00" from="14019569#1" to="-14025222#2" />
    <trip id="767" depart="767.00" from="682551442#10" to="-683047946#3" />
    <trip id="769" depart="769.00" from="-14024835#1" to="14026024#1" />
    <trip id="770" depart="770.00" from="625743595" to="-14027172#2" />
    <trip id="772" depart="772.00" from="14024684#3" to="682553774#1" />
    <trip id="773" depart="773.00" from="682551442#1" to="14026100#4" />
    <trip id="774" depart="774.00" from="683043814#3" to="14025399" />
    <trip id="777" depart="777.00" from="-14025222#9" to="14026768#0" />
    <trip id="778" depart="778.00" from="-14019622#0" to="14024694#2" />
    <trip id="779" depart="779.00" from="-682551442#2" to="14026937#3" />
    <trip id="780" depart="780.00" from="14024684#8" to="14025222#3" />
    <trip id="782" depart="782.00" from="683270327" to="14026251#3" />
    <trip id="783" depart="783.00" from="14021132#0" to="14026504#3" />
    <trip id="784" depart="784.00" from="14027562#1" to="-14024696#1" />
    <trip id="788" depart="788.00" from="14026504#9" to="14025532" />