<?xml version="1.0" encoding="UTF-8"?>

<!-- generated on 2025-02-11 20:36:51.947248 by randomTrips.py v1_22_0+0087-91b2b3c2d6e
<configuration>
    <net-file value="lyons_new.net.xml"/>
    <output-trip-file value="trips.xml"/>
    <route-file value="routes.rou.xml"/>
    <end value="600.0"/>
    <period value="0.5"/>
</configuration>
-->

<!-- generated on 2025-02-11 20:36:51 by Eclipse SUMO duarouter Version 1.15.0
<configuration xmlns:xsi="http://www.w3.org/2001/XMLSchema-instance" xsi:noNamespaceSchemaLocation="http://sumo.dlr.de/xsd/duarouterConfiguration.xsd">

    <input>
        <net-file value="lyons_new.net.xml"/>
        <route-files value="trips.xml"/>
    </input>

    <output>
        <output-file value="routes.rou.xml"/>
        <alternatives-output value="NUL"/>
    </output>

    <time>
        <begin value="0"/>
        <end value="600.0"/>
    </time>

    <report>
        <no-warnings value="true"/>
        <ignore-errors value="true"/>
        <no-step-log value="true"/>
    </report>

</configuration>
-->

<routes xmlns:xsi="http://www.w3.org/2001/XMLSchema-instance" xsi:noNamespaceSchemaLocation="http://sumo.dlr.de/xsd/routes_file.xsd">
    <vehicle id="0" depart="0.00">
        <route edges="14025398#4 -14025398#4 -14025398#3 -14025398#2 -14025398#1 -14025398#0 14026351 683047946#0 683047946#1 683047946#2 683047946#3 -14026251#3 -14026251#2 -14026251#1 -14026251#0 14026096#0 14026096#1 14026096#2 14026096#3 14026096#4 14026096#5 14026937#0 14026937#1 14026937#2 14026937#3 -14019571#3"/>
    </vehicle>
    <vehicle id="1" depart="0.50">
        <route edges="-14026436 -14025944#1 -14025944#0 -625743585#1 -625743585#0 -683043808#2 -683043808#1 14025159#0 14025159#1 -683043814#6 -683043814#5 -683043814#4 -683043814#3 -14026251#1"/>
    </vehicle>
    <vehicle id="2" depart="1.00">
        <route edges="14026326#2 -14026059 -14025944#2 -14025944#1 -14025944#0 -625743585#1 -625743585#0 -683043808#2 -683043808#1 14025159#0 14025159#1 -683043814#6 -683043814#5 -683043814#4 -683043814#3 -683043814#2 -683043814#1 -683043814#0 -14025386#1 -14025386#0 -14026017 14026019#0 14026019#1"/>
    </vehicle>
    <vehicle id="3" depart="1.50">
        <route edges="682553774#2 -14024835#3 -14024835#2"/>
    </vehicle>
    <vehicle id="4" depart="2.00">
        <route edges="-683043814#4 14019569#2 14019569#3 14019569#4 14019569#5 14019569#6 14019569#7 -14019622#1"/>
    </vehicle>
    <vehicle id="5" depart="2.50">
        <route edges="-14026096#9 -14026096#8 -14026096#7 -14026096#6 14026937#0 14026937#1 14026937#2 14026937#3 -14019571#3 -14019571#2 14019571#2 14019571#3"/>
    </vehicle>
    <vehicle id="6" depart="3.00">
        <route edges="-14019622#0 14019622#0 -14026251#7 -14026251#6 -14026251#5 -14026251#4 -14026251#3 -14026251#2 -14026251#1 -14026251#0 14026096#0 14026096#1 14026096#2 14026096#3 14026096#4 14026096#5 -14026096#5 -14026096#4 -14026096#3"/>
    </vehicle>
    <vehicle id="7" depart="3.50">
        <route edges="14025708#1 14025708#2 14025708#3 -14025708#3 -14025708#2 -14025708#1 -14025708#0 14026019#0 14026019#1 14026351 683047946#0 683047946#1 683047946#2 14024684#4 14024684#5 14024684#6 14024684#7"/>
    </vehicle>
    <vehicle id="8" depart="4.00">
        <route edges="-14026100#0 -683043808#1 14025159#0 14025159#1 14025159#2 14025159#3 14025159#4 14025159#5"/>
    </vehicle>
    <vehicle id="9" depart="4.50">
        <route edges="14027172#2 -14027172#2 -14027172#1 -14027172#0 14026336#0 14026336#1 14026336#2 14026336#3 -683047946#5 -14019569#3"/>
    </vehicle>
    <vehicle id="10" depart="5.00">
        <route edges="14027172#0 14027172#1 14027172#2 14027172#3 -14026834 14026096#3 14026096#4 14026096#5 14026096#6 14026096#7"/>
    </vehicle>
    <vehicle id="11" depart="5.50">
        <route edges="-14027562#2 -14027562#1 -14027562#0 682553780 683050819 682553781 14024875 682553782 -683050822#4 -683050822#3 -683050822#2 -683050822#1 -683050822#0 -625743585#2 -625743585#1 -625743585#0 -683043808#2 -683043808#1 14025159#0 14025159#1 -683043814#6 -683043814#5 -683043814#4 -683043814#3 -683043814#2 -683043814#1 -683043814#0 -14025386#1 -14025386#0 -14026017 14025708#0 14025708#1 14025708#2 14025708#3 -14025708#3 -14025708#2 -14025708#1 -14025708#0"/>
    </vehicle>
    <vehicle id="12" depart="6.00">
        <route edges="683047943#1 -683047943#1 -683047943#0 14025222#3 14025222#4 14025222#5 14025222#6 14025222#7 14025222#8 14025222#9 14025222#10 14025222#11 14025222#12 14025222#13 -14027562#4"/>
    </vehicle>
    <vehicle id="13" depart="6.50">
        <route edges="-14024835#4 -682553774#2 -682553774#1 -682553774#0 -625743592 625743593 625743594 682553782 -683050822#4 -683050822#3 -683050822#2 -683050822#1 -683050822#0 -625743585#2 -625743585#1 -625743585#0 -683043808#2 -683043808#1 14025159#0 14025159#1 14025159#2 14025159#3 -14025159#3 -14025159#2"/>
    </vehicle>
    <vehicle id="14" depart="7.00">
        <route edges="625743596 682553777#0 682553777#1 14027562#0 14027562#1 14027562#2 14027562#3 14027562#4 -14025222#13 -14025222#12 -14025222#11 -14025222#10 -14025222#9 14025222#9 14025222#10"/>
    </vehicle>
    <vehicle id="15" depart="7.50">
        <route edges="14027172#0 14027172#1 14027172#2 -14027172#2 -14027172#1 -14027172#0 14026336#0 14026336#1 -683043814#4 14019569#2 14019569#3 -683047946#4 14026251#4 14026251#5 14026251#6 14026251#7 14026251#8 14026251#9"/>
    </vehicle>
    <vehicle id="16" depart="8.00">
        <route edges="14024684#0 14024684#1 14024684#2 14024684#3 683047946#3 683047946#4 683047946#5 683047946#6"/>
    </vehicle>
    <vehicle id="17" depart="8.50">
        <route edges="-682551442#7 -682551442#6 -14026504#5 -14026504#4 -14026504#3 -14026504#2 -14026504#1 -14026504#0 14026007#0 14026007#1 -14025894#1 -14025894#0 14027172#3 14027172#4 14027172#5 14027172#6 14027172#7 683270327 14024696#0 14024696#1 14021132#0 14021132#1 14021132#2 683270320 14024694#0 14024694#1"/>
    </vehicle>
    <vehicle id="18" depart="9.00">
        <route edges="14027562#4 -14025222#13 -14025222#12 -14025222#11 -14025222#10 -14025222#9 -14025222#8 -14025222#7 -14025222#6 -14025222#5 14025222#5 14025222#6"/>
    </vehicle>
    <vehicle id="19" depart="9.50">
        <route edges="682551442#2 682551442#3 682551442#4 682551442#5 682551442#6 682551442#7 682551442#8 682551442#9 682551442#10 682551442#11 682551442#12 682551442#13 682551442#14 -14027562#0 682553780 683050819 682553781 14024875"/>
    </vehicle>
    <vehicle id="20" depart="10.00">
        <route edges="14026100#0 -14025894#3 -14025894#2 -14025894#1 -14025894#0 -14027172#2 -14027172#1 -14027172#0 14026336#0 14026336#1 -683043814#4 -683043814#3 -683043814#2 -14024684#1 -14024684#0"/>
    </vehicle>
    <vehicle id="21" depart="10.50">
        <route edges="-14026100#4 -14026100#3 -14026100#2 -14026100#1 -14025894#3 -14025894#2 -14026007#1 -14026007#0 14026504#0 14026504#1 14026504#2 14026504#3 14026504#4 14026504#5 14026504#6 14026504#7 14026504#8 14026504#9 -14026504#9"/>
    </vehicle>
    <vehicle id="22" depart="11.00">
        <route edges="-14024710#1 -14024710#0 14024710#0 14024710#1 14024710#2 14024710#3 -683047943#2 -682551445#2 -682551445#1 -683047939#1 -683047939#0 -14026251#9 -14026251#8 -14026251#7 -14026251#6"/>
    </vehicle>
    <vehicle id="23" depart="11.50">
        <route edges="-14025159#3 -14025159#2 14025159#2 14025159#3 -683047946#7 -14026504#3"/>
    </vehicle>
    <vehicle id="24" depart="12.00">
        <route edges="14025398#2 14019623 -14024684#7 -14024684#6 682551442#0 682551442#1 682551442#2 682551442#3 682551442#4 682551442#5 -682551442#5 -682551442#4"/>
    </vehicle>
    <vehicle id="25" depart="12.50">
        <route edges="-682551442#3 -682551442#2 -14019569#5 -14019569#4 -14019569#3 -14019569#2 683043814#4 -14026336#1 -14026336#0 14027172#0 14027172#1 14027172#2 14027172#3 14027172#4 14027172#5 14027172#6 14027172#7 683270327 14024696#0 14024696#1 -683270305 -14026096#9"/>
    </vehicle>
    <vehicle id="26" depart="13.00">
        <route edges="-14026336#6 -682551442#3 -682551442#2 -14019569#5 -14019569#4 -14019569#3 -14019569#2 -683043814#3 -683043814#2 -683043814#1 -683043814#0 -14025386#1 -14025386#0 683044783#0 683044783#1"/>
    </vehicle>
    <vehicle id="27" depart="13.50">
        <route edges="14025708#0 14025708#1 14025708#2 14025708#3 -14025708#3 -14025708#2 -14025708#1 -14025708#0 14026017 14025386#0 14025386#1 683043814#0 683043814#1 683043814#2 683043814#3 683043814#4 683043814#5 14026504#2 14026504#3 14026504#4 14026504#5 14026504#6 14026504#7 14026504#8 14026504#9 14025222#4 14025222#5 14025222#6 14025222#7 14025222#8 14025222#9 14025222#10 14025222#11 14025222#12 14025222#13"/>
    </vehicle>
    <vehicle id="28" depart="14.00">
        <route edges="-14025894#0 -14027172#2 -14027172#1 -14027172#0 14026336#0 14026336#1 -683043814#4 14019569#2 14019569#3 -683047946#4 14026251#4 14026251#5 14026251#6 14026251#7 14026251#8 14026251#9"/>
    </vehicle>
    <vehicle id="29" depart="14.50">
        <route edges="-14025708#0 14026019#0 14026019#1 14025398#0 14025398#1 14025398#2 14019623 14024684#8 14024684#9 14024684#10 682551446#0 682551446#1 682551445#0 682551445#1 682551445#2 -682551445#2"/>
    </vehicle>
    <vehicle id="30" depart="15.00">
        <route edges="683056203 14024408#0 -14019571#1 -14019571#0 -14025894#2 -14026007#1 -14026007#0 14026504#0 14026504#1 14026504#2 14026504#3 14026504#4 14026504#5 14026504#6 14026504#7 14026504#8 14026504#9 14025222#4 14026024#0 14026024#1 14025532"/>
    </vehicle>
    <vehicle id="31" depart="15.50">
        <route edges="14024694#0 -14024694#0 -683270320 -14021132#2 -14021132#1 -14021132#0 -14024696#1 -14024696#0 -683270327 -14027172#7 -14026937#1 -14026937#0 -14026096#5 -14026096#4 -14026096#3 -14026096#2 -14026096#1 -14026096#0 14026096#0"/>
    </vehicle>
    <vehicle id="32" depart="16.00">
        <route edges="625743593 625743594 682553785 682553777#0 682553777#1 14027562#0 -682551442#14 -682551442#13 -682551442#12 -682551442#11 -682551442#10 -682551442#9 -682551442#8 -682551442#7 -682551442#6 14026504#6 14026504#7"/>
    </vehicle>
    <vehicle id="33" depart="16.50">
        <route edges="-14026251#0 14026251#0 14026251#1 14026251#2 14026251#3 -683047946#3 14024684#4 14024684#5 14024684#6 14024684#7 -14019623"/>
    </vehicle>
    <vehicle id="34" depart="17.00">
        <route edges="-14026937#1 -14026937#0 14026937#0 14026937#1 14026937#2 14026937#3 14026937#4 -14026100#4 -14026100#3 -14026100#2 -14026100#1 -14026100#0 683043808#2 625743585#0 625743585#1 14025944#0 14025944#1 14026436 -14026436"/>
    </vehicle>
    <vehicle id="35" depart="17.50">
        <route edges="-14026096#5 -14026096#4 -14026096#3 -14026096#2 -14026096#1 -14026096#0 683044783#3 683044783#4"/>
    </vehicle>
    <vehicle id="36" depart="18.00">
        <route edges="682551442#9 682551442#10 682551442#11 682551442#12 682551442#13 682551442#14 -14027562#0 682553780 683050819 682553781 14024875 682553782 -683050822#4 -683050822#3 -683050822#2 -683050822#1 -683050822#0 -625743585#2 -625743585#1 -625743585#0 -683043808#2 14026100#0 -14025894#3 -14025894#2 -14025894#1 -14025894#0 -14027172#2 -14027172#1 -14027172#0"/>
    </vehicle>
    <vehicle id="37" depart="18.50">
        <route edges="14025894#1 14025894#2 14025894#3 -14026100#0 683043808#2 625743585#0 625743585#1 625743585#2 683050822#0 683050822#1 683050822#2 683050822#3 683050822#4 625743596 682553777#0 682553777#1 14027562#0 14027562#1 14027562#2 14027562#3 14027562#4 14027562#5 -682553779#2 -682553779#1 -682553779#0"/>
    </vehicle>
    <vehicle id="38" depart="19.00">
        <route edges="682553786 -682553776 682553776 625743595 14024875 682553782 -683050822#4 -683050822#3 -683050822#2 -683050822#1 -683050822#0 -625743585#2 -625743585#1 -625743585#0 -683043808#2 -683043808#1 14025159#0 14025159#1 14025159#2 14025159#3 -683047946#7"/>
    </vehicle>
    <vehicle id="39" depart="19.50">
        <route edges="-14026336#5 -14026336#4 -14026336#3 -14026336#2 683043814#5 683043814#6 -14025159#1 -14025159#0 683043808#1 683043808#2 625743585#0 625743585#1 14025944#0 14025944#1 14025944#2 14026059 -14026326#2"/>
    </vehicle>
    <vehicle id="40" depart="20.00">
        <route edges="14024696#0 14024696#1 -14024696#1 -14024696#0 -683270327 -14027172#7 -14027172#6 -14027172#5 -14027172#4 -14027172#3 -14027172#2 -14027172#1 -14027172#0 14026336#0 14026336#1 14026336#2 14026336#3 14026336#4 14026336#5 14026336#6 14026336#7 14026336#8 14026336#9 -14026336#9 -14026336#8"/>
    </vehicle>
    <vehicle id="41" depart="20.50">
        <route edges="14025159#0 14025159#1 -14025159#1 -14025159#0 683043808#1 683043808#2 625743585#0 625743585#1 625743585#2 683050822#0 683050822#1 683050822#2 683050822#3 683050822#4 625743596 682553777#0 682553777#1"/>
    </vehicle>
    <vehicle id="42" depart="21.00">
        <route edges="-682553774#2 -682553774#1 -682553774#0 -625743592 625743593 625743594 682553782 -683050822#4 -683050822#3 -683050822#2 -683050822#1 -683050822#0 -625743585#2 -625743585#1 -625743585#0 -683043808#2 14026100#0 14026100#1 14026100#2 14026100#3 14026100#4 -14026937#4 14026937#4 -14026100#4"/>
    </vehicle>
    <vehicle id="43" depart="21.50">
        <route edges="683270320 14024694#0 -14024694#0 -683270320 -14021132#2 -14021132#1 -14021132#0 -14024696#1 -14024696#0 -683270327 -14027172#7 -14026937#1 -14026937#0 -14026096#5 -14026096#4 -14026096#3 -14026096#2 -14026096#1 -14026096#0 14026251#0 14026251#1 14026251#2 14026251#3 14026251#4 14026251#5 14026251#6 14026251#7 14019622#1"/>
    </vehicle>
    <vehicle id="44" depart="22.00">
        <route edges="-14024835#3 -14024835#2 -14024835#1 -14024835#0 -14024694#0 -683270320 -14021132#2 -14021132#1 -14021132#0 -14024696#1 -14024696#0 -683270327 -14027172#7 -14026937#1 -14026937#0 -14026096#5 -14026096#4 -14026096#3 -14026096#2 -14026096#1 -14026096#0 14026251#0 14026251#1 -683043814#2 -14024684#1"/>
    </vehicle>
    <vehicle id="45" depart="22.50">
        <route edges="-14025159#7 -14025159#6 -682551442#6 -14026504#5 -14026504#4 -14026504#3 -14026504#2 -683043814#5 -683043814#4 -683043814#3 -683043814#2 -683043814#1 -683043814#0 -14025386#1 -14025386#0 14025386#0 14025386#1"/>
    </vehicle>
    <vehicle id="46" depart="23.00">
        <route edges="14026768#1 14026768#2 -682551442#7 -682551442#6 -14026504#5 -14026504#4 -14026504#3 -14026504#2 -683043814#5 -683043814#4 -683043814#3 -683043814#2 -14024684#1 -14024684#0 -683044783#1"/>
    </vehicle>
    <vehicle id="47" depart="23.50">
        <route edges="-14024684#7 -14024684#6 682551442#0 14026251#6 14026251#7 14026251#8 14026251#9 683047939#0 683047939#1 -682551445#0 -682551446#1 -682551446#0"/>
    </vehicle>
    <vehicle id="48" depart="24.00">
        <route edges="683270315 -683270315 -683270311 -682551447 -14025944#2 -14025944#1 -14025944#0 -625743585#1 -625743585#0 -683043808#2 -683043808#1 -683043808#0 -683044783#6 -683044783#5 -683044783#4 -683044783#3 -683044783#2 14024684#0"/>
    </vehicle>
    <vehicle id="49" depart="24.50">
        <route edges="683047946#5 683047946#6 683047946#7 14025159#4 14025159#5 682551442#7 682551442#8 682551442#9 682551442#10 682551442#11 682551442#12 682551442#13 682551442#14"/>
    </vehicle>
    <vehicle id="50" depart="25.00">
        <route edges="-14019569#6 -682551442#1 -14026251#5 -14026251#4 14026251#4"/>
    </vehicle>
    <vehicle id="51" depart="25.50">
        <route edges="14026024#1 14025532 -14025532 -14026024#1 -14026024#0 -14025222#4 -14026504#9 -14026504#8 -14026504#7 -14026504#6 -14026504#5 -14026504#4 -14026504#3 -14026504#2 -683043814#5 -683043814#4 -683043814#3 -683043814#2 14024684#2 14024684#3"/>
    </vehicle>
    <vehicle id="52" depart="26.00">
        <route edges="-14026336#6 682551442#4 682551442#5 14026504#6 14026504#7 14026504#8 14026504#9 14025222#4 14026024#0 14026024#1 14025532"/>
    </vehicle>
    <vehicle id="53" depart="26.50">
        <route edges="-14025159#8 -14019624 14026504#8 14026504#9 -14025222#3 683047943#0 683047943#1 -682551445#2 -682551445#1 -683047939#1"/>
    </vehicle>
    <vehicle id="54" depart="27.00">
        <route edges="-683047946#0 -14026351 14026351 683047946#0 683047946#1 683047946#2 683047946#3 14026251#4 14026251#5 14026251#6 14026251#7 14019622#1 14019569#8 14019569#9 683047942#0 683047942#1"/>
    </vehicle>
    <vehicle id="55" depart="27.50">
        <route edges="682551442#9 682551442#10 682551442#11 682551442#12 682551442#13 682551442#14 14027562#1 14027562#2 14027562#3 14027562#4 -14025222#13 -14025222#12 -14025222#11 -14025222#10 -14025222#9 -14025222#8 -14025222#7 -14025222#6 -14025222#5 -14025222#4 -14025222#3 -14026336#9 -14026336#8"/>
    </vehicle>
    <vehicle id="56" depart="28.00">
        <route edges="14019569#6 14019569#7 -14019569#7 -14019569#6 -14019569#5 -14019569#4 683047946#5 683047946#6 -14026504#3 -14026504#2 -14026504#1 -14026504#0 14026007#0 14026007#1 -14026007#1"/>
    </vehicle>
    <vehicle id="57" depart="28.50">
        <route edges="682553785 682553777#0 682553777#1 14027562#0 -682551442#14 -682551442#13 -682551442#12 -682551442#11 -682551442#10 -682551442#9 -682551442#8 -682551442#7 -682551442#6 682551442#6"/>
    </vehicle>
    <vehicle id="58" depart="29.00">
        <route edges="-14026530 -14025222#8 -14025222#7 -14025222#6 -14025222#5 -14025222#4 -14026504#9 -14026504#8 -14026504#7 -14026504#6 -14026504#5 -14026504#4 -14026504#3 -14026504#2 -683043814#5 -683043814#4 -683043814#3 -683043814#2 -683043814#1 -683043814#0 -14025386#1 -14025386#0 14025399"/>
    </vehicle>
    <vehicle id="59" depart="29.50">
        <route edges="14025222#11 14025222#12 14025222#13 -14027562#4 -14027562#3 -14027562#2 -14027562#1 -14027562#0 682553780 683050819 682553781 14024875 682553782 -683050822#4 -683050822#3 -683050822#2 -683050822#1 -683050822#0 -625743585#2 -625743585#1 -625743585#0 -683043808#2 -683043808#1 -683043808#0 -683044783#6 -683044783#5 -683044783#4 14025701#0 14025701#1 -14026676#2 14026676#2 -14025701#1 -14025701#0"/>
    </vehicle>
    <vehicle id="60" depart="30.00">
        <route edges="14026466 -14026466 -14026096#7 -14026096#6 -14026096#5 -14026096#4 -14026096#3 -14026096#2 -14026096#1 -14026096#0 14026251#0 14026251#1 14026251#2 14026251#3 -683047946#3 14024684#4"/>
    </vehicle>
    <vehicle id="61" depart="30.50">
        <route edges="14026504#8 14026504#9 -14026504#9 -14026504#8 -14026504#7 -14026504#6 -14026504#5 -14026504#4 -14026504#3 -14026504#2 -683043814#5 -683043814#4 -683043814#3 -683043814#2 -14024684#1 -14024684#0 14024684#0"/>
    </vehicle>
    <vehicle id="62" depart="31.00">
        <route edges="-14019569#0 683044783#4 683044783#5 14027172#0 14027172#1 14027172#2 14027172#3 14027172#4 14027172#5 14027172#6 -14027172#6 -14027172#5"/>
    </vehicle>
    <vehicle id="63" depart="31.50">
        <route edges="-14019571#0 -14025894#2 -14025894#1 -14025894#0 -14027172#2 -14027172#1 -14027172#0 14026336#0 14026336#1 -683043814#4 683043814#4"/>
    </vehicle>
    <vehicle id="64" depart="32.00">
        <route edges="682551445#1 682551445#2 -683047943#1 -683047943#0 14025222#3 14025222#4 14025222#5 14025222#6 14025222#7 14025222#8 14025222#9 14025222#10 14025222#11 14025222#12 14025222#13 14027562#5"/>
    </vehicle>
    <vehicle id="65" depart="32.50">
        <route edges="-14026768#1 -14026768#0 14026768#0 14026768#1 14026768#2 -682551442#7 -682551442#6 -682551442#5 -682551442#4 -682551442#3 -682551442#2 -682551442#1 -682551442#0 -14024684#5"/>
    </vehicle>
    <vehicle id="66" depart="33.00">
        <route edges="682551445#0 682551445#1 -683047942#1 -683047942#0 -14019569#9 -14019569#8 -14019569#7 -14019569#6 -14019569#5 -14019569#4 -14019569#3 -14019569#2 683043814#4 -14026336#1 -14026336#0 683044783#6"/>
    </vehicle>
    <vehicle id="67" depart="33.50">
        <route edges="-14024835#0 -14024694#0 -683270320 -14021132#2 -14021132#1 -14021132#0 -14024696#1 -14024696#0 -683270327 -14027172#7 -14027172#6 -14027172#5 -14027172#4 -14027172#3 -14027172#2 -14027172#1 -14027172#0 14026336#0 14026336#1 -683043814#4 14019569#2 14019569#3"/>
    </vehicle>
    <vehicle id="68" depart="34.00">
        <route edges="-14024694#1 -14024694#0 -683270320 -14021132#2 -14021132#1 -14021132#0 -14024696#1 -14024696#0 -683270327 -14027172#7 14026937#2 14026937#3 14026937#4 -14026100#4 -14026100#3 -14026100#2 -14026100#1 -14026100#0 683043808#2 625743585#0 625743585#1 14025944#0 14025944#1 14026436"/>
    </vehicle>
    <vehicle id="69" depart="34.50">
        <route edges="14026504#1 14026504#2 14026504#3 14026504#4 14026504#5 14026504#6 14026504#7 14026504#8 14026504#9 14025222#4 14025222#5 14025222#6 14025222#7 14025222#8 -14025222#8 -14025222#7 -14025222#6 -14025222#5"/>
    </vehicle>
    <vehicle id="70" depart="35.00">
        <route edges="-683050822#3 -683050822#2 -683050822#1 -683050822#0 -625743585#2 -625743585#1 -625743585#0 -683043808#2 14026100#0 14026100#1 14026100#2 14026100#3 14026100#4 -14026937#4 -14026937#3 -14026937#2 14027172#7 683270327 14024696#0 14024696#1 14021132#0 14021132#1 14021132#2 683270320 14024694#0"/>
    </vehicle>
    <vehicle id="71" depart="35.50">
        <route edges="-14026336#5 -14026336#4 683047946#6 683047946#7 14025159#4 14025159#5 682551442#7"/>
    </vehicle>
    <vehicle id="72" depart="36.00">
        <route edges="-683043814#5 -14026336#1 -14026336#0 14027172#0 14027172#1 14027172#2 14025894#0 14025894#1 14025894#2 14025894#3 -14026100#0"/>
    </vehicle>
    <vehicle id="73" depart="36.50">
        <route edges="14024684#10 -14024684#10 -14024684#9 14019622#0 14026251#8 14026251#9"/>
    </vehicle>
    <vehicle id="74" depart="37.00">
        <route edges="-14026096#0 14026096#0 14026096#1 14026096#2 14026096#3 14026096#4 14026096#5 14026937#0 14026937#1 14026937#2 14026937#3 -14026937#3"/>
    </vehicle>
    <vehicle id="75" depart="37.50">
        <route edges="683270315 -683270315 -683270311 -682551447 -14025944#2 -14025944#1 -14025944#0 -625743585#1 -625743585#0 -683043808#2 -683043808#1 14025159#0 14025159#1 -683043814#6 -683043814#5 -683043814#4 -683043814#3 -683043814#2 -683043814#1 -683043814#0 -14025386#1 -14025386#0 -14026017 14025708#0 14025708#1"/>
    </vehicle>
    <vehicle id="76" depart="38.00">
        <route edges="-683044783#6 14027172#0 14027172#1 14027172#2 14025894#0 14025894#1 14025894#2 14019571#0 14019571#1 -14024408#0 14020103"/>
    </vehicle>
    <vehicle id="77" depart="38.50">
        <route edges="-14025222#11 -14025222#10 -14025222#9 -14025222#8 -14025222#7 -14025222#6 -14025222#5 -14025222#4 -14026504#9 -14026504#8 -14026504#7 -14026504#6 -14026504#5 -14026504#4 -683047946#6 -683047946#5 -683047946#4 -14026251#3 -14026251#2"/>
    </vehicle>
    <vehicle id="78" depart="39.00">
        <route edges="-14027562#0 14027562#0 -682551442#14 -682551442#13 -682551442#12 -682551442#11 -682551442#10 -682551442#9 -682551442#8 -682551442#7 -14025159#5 -14025159#4 14025159#4"/>
    </vehicle>
    <vehicle id="79" depart="39.50">
        <route edges="-14026251#1 -14026251#0 14026096#0 14026096#1 14026096#2 14026096#3 14026096#4 14026096#5 14026937#0 14026937#1 14026937#2 14026937#3 14026937#4 -14026100#4"/>
    </vehicle>
    <vehicle id="80" depart="40.00">
        <route edges="-14024694#1 -14024694#0 -683270320 -14021132#2 -14021132#1 -14021132#0 -14024696#1 -14024696#0 -683270327 -14027172#7 -14026937#1 -14026937#0 -14026096#5 -14026096#4 -14026096#3 -14026096#2 -14026096#1 -14026096#0 14026251#0 14026251#1 14026251#2 14026251#3 -683047946#3 -683047946#2 -683047946#1 -683047946#0 -14026351 14025398#0 14025398#1"/>
    </vehicle>
    <vehicle id="81" depart="40.50">
        <route edges="-14026251#0 683044783#3 683044783#4 683044783#5 683044783#6 683043808#0 683043808#1 683043808#2 625743585#0 625743585#1 625743585#2 683050822#0 683050822#1 683050822#2 683050822#3 683050822#4 625743596 682553777#0 682553777#1 682553780"/>
    </vehicle>
    <vehicle id="82" depart="41.00">
        <route edges="682551442#13 682551442#14 -14027562#0 682553780 683050819 682553781 682553778 625743592 682553774#0 682553774#1 682553774#2 -14024835#3 -14024835#2 -14024835#1 -14024835#0 14024694#1 14024694#2 14024694#3 -14024694#3 -14024694#2"/>
    </vehicle>
    <vehicle id="83" depart="41.50">
        <route edges="-14026251#5 -14026251#4 683047946#4 683047946#5 683047946#6 -14026504#3 -14026504#2 -14026504#1 -14026504#0 14026007#0"/>
    </vehicle>
    <vehicle id="84" depart="42.00">
        <route edges="-14026096#7 -14026096#6 -14026096#5 -14026096#4 -14026096#3 -14026096#2 -14026096#1 -14026096#0 14026251#0 14026251#1 683043814#3 683043814#4 683043814#5 14026504#2 14026504#3 14026504#4 14026504#5 14026504#6 14026504#7 14026504#8 14026504#9 14025222#4 14025222#5 14025222#6 14025222#7 14025222#8 -14025222#8 -14025222#7"/>
    </vehicle>
    <vehicle id="85" depart="42.50">
        <route edges="683044783#0 683044783#1 14026010 683050817 14026676#0 14026676#1 14026096#2 14026096#3 14026096#4 14026096#5 14026937#0 14026937#1 14027172#7 683270327 14024696#0 14024696#1 14021132#0 14021132#1 14021132#2 683270320 14024694#0 14024835#0 14024835#1 14024835#2"/>
    </vehicle>
    <vehicle id="86" depart="43.00">
        <route edges="-683050822#1 -683050822#0 -625743585#2 -625743585#1 -625743585#0 -683043808#2 -683043808#1 -683043808#0 -683044783#6 -683044783#5 -683044783#4 -683044783#3 -683044783#2 14026010 683050817 14026676#0"/>
    </vehicle>
    <vehicle id="87" depart="43.50">
        <route edges="14027172#1 14027172#2 14025894#0 14025894#1 -14026007#1 -14026007#0 14026504#0 14026504#1 14026504#2 14026504#3 14026504#4 14026504#5 14026504#6 14026504#7 14026504#8 14026504#9 14025222#4 14026024#0 14026024#1 14025532 -14025532 -14026024#1"/>
    </vehicle>
    <vehicle id="88" depart="44.00">
        <route edges="-14025159#0 -683043808#0 -683044783#6"/>
    </vehicle>
    <vehicle id="89" depart="44.50">
        <route edges="-683043814#5 683043814#5 683043814#6 -14025159#1 -14025159#0 683043808#1 683043808#2 625743585#0 625743585#1 625743585#2 683050822#0 683050822#1 683050822#2 -683050822#2"/>
    </vehicle>
    <vehicle id="90" depart="45.00">
        <route edges="14026251#9 -14026251#9 -14026251#8 -14019622#0 -14024684#8 -14019623 -14025398#2 -14025398#1 -14025398#0 -14026019#1 -14026019#0 14026017"/>
    </vehicle>
    <vehicle id="91" depart="45.50">
        <route edges="683050822#2 -683050822#2 -683050822#1 -683050822#0 -625743585#2 -625743585#1 -625743585#0 -683043808#2 -683043808#1 14025159#0 14025159#1 14025159#2 14025159#3 -14025159#3"/>
    </vehicle>
    <vehicle id="92" depart="46.00">
        <route edges="-682553779#1 -682553779#0 682553779#0 682553779#1 682553779#2 -14027562#5"/>
    </vehicle>
    <vehicle id="93" depart="46.50">
        <route edges="682551442#14 -682551442#14 -682551442#13 -682551442#12 -682551442#11 -682551442#10 -682551442#9 -682551442#8 -682551442#7 -682551442#6 -14026504#5 -14026504#4 -14026504#3 -14026504#2 -683043814#5 -14026336#1"/>
    </vehicle>
    <vehicle id="94" depart="47.00">
        <route edges="-14026017 14026019#0 14026019#1 14026351 683047946#0 683047946#1 683047946#2 -683047946#2"/>
    </vehicle>
    <vehicle id="95" depart="47.50">
        <route edges="-683043814#4 683043814#4 683043814#5 14026504#2 14026504#3 14026504#4 14026504#5 -14026504#5 -14026504#4"/>
    </vehicle>
    <vehicle id="96" depart="48.00">
        <route edges="-14026326#0 -683050822#2 -683050822#1 -683050822#0 -625743585#2 -625743585#1 -625743585#0 -683043808#2 -683043808#1 14025159#0 14025159#1 -683043814#6 -683043814#5 -683043814#4 -683043814#3 -683043814#2 -683043814#1 -683043814#0 -14025386#1 -14025386#0 14025386#0 14025386#1 683043814#0"/>
    </vehicle>
    <vehicle id="97" depart="48.50">
        <route edges="-683047942#0 -14019569#9 -14019569#8 14019622#2 -14026336#7 -14026336#6 682551442#4 682551442#5 682551442#6 682551442#7 682551442#8 682551442#9 682551442#10 682551442#11 682551442#12 682551442#13 682551442#14"/>
    </vehicle>
    <vehicle id="98" depart="49.00">
        <route edges="14024684#7 -14024684#7 -14024684#6 -14024684#5 -14024684#4 -14024684#3 -14024684#2"/>
    </vehicle>
    <vehicle id="99" depart="49.50">
        <route edges="683270327 -683270327 -14027172#7 14026937#2 14026937#3 14026937#4 -14026100#4 -14026100#3 -14026100#2 -14026100#1 -14026100#0 683043808#2 625743585#0 625743585#1 625743585#2"/>
    </vehicle>
    <vehicle id="100" depart="50.00">
        <route edges="683047946#4 -683047946#4 -683047946#3 -14024684#3 -14024684#2 683043814#2"/>
    </vehicle>
    <vehicle id="101" depart="50.50">
        <route edges="682551442#0 -14026251#5 -14026251#4 683047946#4 683047946#5 683047946#6 -14026504#3 -14026504#2 -14026504#1 -14026504#0 14026007#0 14026007#1 14025894#2 -14025894#2"/>
    </vehicle>
    <vehicle id="102" depart="51.00">
        <route edges="-683270320 -14021132#2 -14021132#1 -14021132#0 -14024696#1 -14024696#0 -683270327 -14027172#7 14026937#2 14026937#3 14026937#4 -14026100#4 -14026100#3 -14026100#2 -14026100#1"/>
    </vehicle>
    <vehicle id="103" depart="51.50">
        <route edges="-682553774#3 -682553774#2 -682553774#1 -682553774#0 -625743592 625743593 625743594 682553785 682553777#0 682553777#1 14027562#0 -682551442#14 -682551442#13 -682551442#12 -682551442#11 -682551442#10 -682551442#9 -682551442#8 -682551442#7 -682551442#6 -682551442#5 -682551442#4 14026336#6 14026336#7 -14019622#2 -14019622#1 -14019622#0 -14024684#8 -14024684#7 -14024684#6"/>
    </vehicle>
    <vehicle id="104" depart="52.00">
        <route edges="-682551442#7 682551442#7 -14026768#2 -14026768#1 -14026768#0 625743585#0 625743585#1 625743585#2 683050822#0 683050822#1 683050822#2 683050822#3"/>
    </vehicle>
    <vehicle id="105" depart="52.50">