<configuration>
	<input>
		<net-file value="lyons.net.xml"/>
		<route-files value="routes.rou.xml"/>
		<additional-files value="detectors.add.xml"/>
	</input>
	 <output>
        <tripinfo-output value="tripinfo.xml"/>
		<<fcd-output value="fcd.xml"/>
    </output>
</configuration>


   


   

