<?xml version="1.0" encoding="UTF-8"?>

<!-- generated on 2025-02-14 15:43:32 by Eclipse SUMO netedit Version 1.22.0
<neteditConfiguration xmlns:xsi="http://www.w3.org/2001/XMLSchema-instance" xsi:noNamespaceSchemaLocation="http://sumo.dlr.de/xsd/neteditConfiguration.xsd">

    <input>
        <sumo-net-file value="C:\Users\jones\Documents\GMU\Spring 2025\CS690\Projects\CS690-MiniProj1\lyons\AM\Networks\lyon_AM_90_SA.net.xml"/>
    </input>

    <output>
        <output-file value="C:\Users\jones\Documents\GMU\Spring 2025\CS690\Projects\CS690-MiniProj1\lyons\AM\Networks\lyon_AM_90_SA.net.xml"/>
    </output>

    <processing>
        <geometry.min-radius.fix.railways value="false"/>
        <geometry.max-grade.fix value="false"/>
        <offset.disable-normalization value="true"/>
        <lefthand value="0"/>
    </processing>

    <junctions>
        <no-turnarounds value="true"/>
        <junctions.corner-detail value="5"/>
        <junctions.limit-turn-speed value="5.50"/>
        <rectangular-lane-cut value="0"/>
    </junctions>

    <pedestrian>
        <walkingareas value="0"/>
    </pedestrian>

</neteditConfiguration>
-->

<net version="1.20" junctionCornerDetail="5" limitTurnSpeed="5.50" xmlns:xsi="http://www.w3.org/2001/XMLSchema-instance" xsi:noNamespaceSchemaLocation="http://sumo.dlr.de/xsd/net_file.xsd">

    <location netOffset="-708632.01,-4635831.38" convBoundary="0.00,0.00,2371.65,17166.48" origBoundary="-96.530495,41.769107,-96.316795,42.000973" projParameter="+proj=utm +zone=14 +ellps=WGS84 +datum=WGS84 +units=m +no_defs"/>

    <type id="highway.footway" priority="1" numLanes="1" speed="2.78" allow="pedestrian" oneway="1" width="2.00"/>
    <type id="highway.primary" priority="12" numLanes="2" speed="27.78" disallow="tram rail_urban rail rail_electric rail_fast ship" oneway="0"/>
    <type id="highway.residential" priority="3" numLanes="1" speed="13.89" disallow="tram rail_urban rail rail_electric rail_fast ship" oneway="0"/>
    <type id="highway.service" priority="1" numLanes="1" speed="5.56" allow="pedestrian delivery bicycle" oneway="0"/>
    <type id="highway.tertiary" priority="10" numLanes="1" speed="22.22" disallow="tram rail_urban rail rail_electric rail_fast ship" oneway="0"/>
    <type id="highway.track" priority="1" numLanes="1" speed="5.56" allow="pedestrian motorcycle moped bicycle" oneway="0"/>
    <type id="highway.unclassified" priority="4" numLanes="1" speed="13.89" disallow="tram rail_urban rail rail_electric rail_fast ship" oneway="0"/>
    <type id="railway.rail" priority="20" numLanes="1" speed="44.44" allow="rail" oneway="1"/>

    <edge id=":133046331_0" function="internal">
        <lane id=":133046331_0_0" index="0" disallow="tram rail_urban rail rail_electric rail_fast ship cable_car subway" speed="6.51" length="9.05" shape="758.67,9430.18 756.20,9430.43 754.41,9431.41 753.29,9433.12 752.84,9435.56"/>
    </edge>
    <edge id=":133046331_1" function="internal">
        <lane id=":133046331_1_0" index="0" disallow="tram rail_urban rail rail_electric rail_fast ship cable_car subway" speed="13.89" length="14.41" shape="758.67,9430.18 744.27,9429.63"/>
    </edge>
    <edge id=":133046331_2" function="internal">
        <lane id=":133046331_2_0" index="0" allow="pedestrian motorcycle moped bicycle" speed="8.00" length="4.04" shape="758.67,9430.18 754.84,9429.47 754.72,9429.38"/>
    </edge>
    <edge id=":133046331_3" function="internal">
        <lane id=":133046331_3_0" index="0" disallow="tram rail_urban rail rail_electric rail_fast ship cable_car subway" speed="3.65" length="1.44" shape="758.67,9430.18 757.50,9429.33"/>
    </edge>
    <edge id=":133046331_16" function="internal">
        <lane id=":133046331_16_0" index="0" allow="pedestrian motorcycle moped bicycle" speed="8.00" length="10.15" shape="754.72,9429.38 752.16,9427.71 750.63,9424.89 750.23,9421.02"/>
    </edge>
    <edge id=":133046331_17" function="internal">
        <lane id=":133046331_17_0" index="0" disallow="tram rail_urban rail rail_electric rail_fast ship cable_car subway" speed="3.65" length="3.23" shape="757.50,9429.33 757.13,9428.51 757.57,9427.73 758.80,9426.98"/>
    </edge>
    <edge id=":133046331_4" function="internal">
        <lane id=":133046331_4_0" index="0" allow="pedestrian motorcycle moped bicycle" speed="6.51" length="9.03" shape="753.43,9421.15 753.68,9423.62 754.66,9425.41 756.37,9426.53 758.80,9426.98"/>
    </edge>
    <edge id=":133046331_5" function="internal">
        <lane id=":133046331_5_0" index="0" allow="pedestrian motorcycle moped bicycle" speed="9.72" length="14.42" shape="753.43,9421.15 752.84,9435.56"/>
    </edge>
    <edge id=":133046331_6" function="internal">
        <lane id=":133046331_6_0" index="0" allow="pedestrian motorcycle moped bicycle" speed="8.03" length="14.22" shape="753.43,9421.15 752.72,9424.98 750.96,9427.66 748.14,9429.21 744.27,9429.63"/>
    </edge>
    <edge id=":133046331_7" function="internal">
        <lane id=":133046331_7_0" index="0" allow="pedestrian motorcycle moped bicycle" speed="3.65" length="4.67" shape="753.43,9421.15 752.58,9422.32 751.77,9422.69 750.98,9422.26 750.23,9421.02"/>
    </edge>
    <edge id=":133046331_8" function="internal">
        <lane id=":133046331_8_0" index="0" allow="pedestrian motorcycle moped bicycle" speed="6.54" length="9.08" shape="744.38,9426.43 746.85,9426.17 748.65,9425.18 749.78,9423.46 750.23,9421.02"/>
    </edge>
    <edge id=":133046331_9" function="internal">
        <lane id=":133046331_9_0" index="0" disallow="tram rail_urban rail rail_electric rail_fast ship cable_car subway" speed="13.89" length="14.43" shape="744.38,9426.43 758.80,9426.98"/>
    </edge>
    <edge id=":133046331_10" function="internal">
        <lane id=":133046331_10_0" index="0" disallow="tram rail_urban rail rail_electric rail_fast ship cable_car subway" speed="7.99" length="4.10" shape="744.38,9426.43 748.22,9427.12 748.38,9427.22"/>
    </edge>
    <edge id=":133046331_11" function="internal">
        <lane id=":133046331_11_0" index="0" disallow="tram rail_urban rail rail_electric rail_fast ship cable_car subway" speed="3.65" length="1.44" shape="744.38,9426.43 745.55,9427.27"/>
    </edge>
    <edge id=":133046331_18" function="internal">
        <lane id=":133046331_18_0" index="0" disallow="tram rail_urban rail rail_electric rail_fast ship cable_car subway" speed="7.99" length="10.12" shape="748.38,9427.22 750.91,9428.87 752.45,9431.68 752.84,9435.56"/>
    </edge>
    <edge id=":133046331_19" function="internal">
        <lane id=":133046331_19_0" index="0" disallow="tram rail_urban rail rail_electric rail_fast ship cable_car subway" speed="3.65" length="3.23" shape="745.55,9427.27 745.92,9428.09 745.49,9428.87 744.27,9429.63"/>
    </edge>
    <edge id=":133046331_12" function="internal">
        <lane id=":133046331_12_0" index="0" disallow="tram rail_urban rail rail_electric rail_fast ship cable_car subway" speed="6.49" length="9.03" shape="749.64,9435.43 749.39,9432.97 748.41,9431.18 746.70,9430.06 744.27,9429.63"/>
    </edge>
    <edge id=":133046331_13" function="internal">
        <lane id=":133046331_13_0" index="0" allow="pedestrian motorcycle moped bicycle" speed="9.72" length="14.42" shape="749.64,9435.43 750.23,9421.02"/>
    </edge>
    <edge id=":133046331_14" function="internal">
        <lane id=":133046331_14_0" index="0" disallow="tram rail_urban rail rail_electric rail_fast ship cable_car subway" speed="8.01" length="14.21" shape="749.64,9435.43 750.35,9431.60 752.11,9428.91 754.93,9427.37 758.80,9426.98"/>
    </edge>
    <edge id=":133046331_15" function="internal">
        <lane id=":133046331_15_0" index="0" disallow="tram rail_urban rail rail_electric rail_fast ship cable_car subway" speed="3.65" length="4.67" shape="749.64,9435.43 750.49,9434.26 751.31,9433.90 752.09,9434.33 752.84,9435.56"/>
    </edge>
    <edge id=":133046337_0" function="internal">
        <lane id=":133046337_0_0" index="0" allow="pedestrian delivery bicycle" speed="5.08" length="5.06" shape="753.86,9486.35 752.48,9486.50 751.47,9487.05 750.84,9488.00 750.59,9489.35"/>
    </edge>
    <edge id=":133046337_1" function="internal">
        <lane id=":133046337_1_0" index="0" allow="pedestrian delivery bicycle" speed="5.56" length="9.44" shape="753.86,9486.35 744.43,9485.99"/>
    </edge>
    <edge id=":133046337_2" function="internal">
        <lane id=":133046337_2_0" index="0" allow="pedestrian delivery bicycle" speed="6.86" length="10.20" shape="753.86,9486.35 751.10,9485.86 749.17,9484.60 748.07,9482.59 747.79,9479.80"/>
    </edge>
    <edge id=":133046337_3" function="internal">
        <lane id=":133046337_3_0" index="0" allow="pedestrian delivery bicycle" speed="3.65" length="4.67" shape="753.86,9486.35 752.69,9485.51 752.32,9484.69 752.74,9483.91 753.97,9483.15"/>
    </edge>
    <edge id=":133046337_4" function="internal">
        <lane id=":133046337_4_0" index="0" allow="pedestrian delivery bicycle" speed="5.03" length="5.01" shape="750.99,9479.93 751.12,9481.30 751.67,9482.29 752.61,9482.91 753.97,9483.15"/>
    </edge>
    <edge id=":133046337_5" function="internal">
        <lane id=":133046337_5_0" index="0" disallow="tram rail_urban rail rail_electric rail_fast ship cable_car subway" speed="13.89" length="9.43" shape="750.99,9479.93 750.59,9489.35"/>
    </edge>
    <edge id=":133046337_6" function="internal">
        <lane id=":133046337_6_0" index="0" allow="pedestrian delivery bicycle" speed="6.87" length="1.73" shape="750.99,9479.93 750.67,9481.64"/>
    </edge>
    <edge id=":133046337_14" function="internal">
        <lane id=":133046337_14_0" index="0" allow="pedestrian delivery bicycle" speed="6.87" length="8.45" shape="750.67,9481.64 750.48,9482.68 749.21,9484.61 747.20,9485.71 744.43,9485.99"/>
    </edge>
    <edge id=":133046337_7" function="internal">
        <lane id=":133046337_7_0" index="0" allow="pedestrian delivery bicycle" speed="5.05" length="5.02" shape="744.56,9482.79 745.92,9482.66 746.92,9482.11 747.54,9481.16 747.79,9479.80"/>
    </edge>
    <edge id=":133046337_8" function="internal">
        <lane id=":133046337_8_0" index="0" allow="pedestrian delivery bicycle" speed="5.56" length="9.41" shape="744.56,9482.79 753.97,9483.15"/>
    </edge>
    <edge id=":133046337_9" function="internal">
        <lane id=":133046337_9_0" index="0" allow="pedestrian delivery bicycle" speed="6.86" length="10.16" shape="744.56,9482.79 747.30,9483.30 749.22,9484.57 750.31,9486.58 750.59,9489.35"/>
    </edge>
    <edge id=":133046337_10" function="internal">
        <lane id=":133046337_10_0" index="0" allow="pedestrian delivery bicycle" speed="3.65" length="4.67" shape="744.56,9482.79 745.73,9483.64 746.09,9484.46 745.66,9485.24 744.43,9485.99"/>
    </edge>
    <edge id=":133046337_11" function="internal">
        <lane id=":133046337_11_0" index="0" allow="pedestrian delivery bicycle" speed="5.04" length="5.00" shape="747.39,9489.22 747.26,9487.86 746.72,9486.86 745.77,9486.24 744.43,9485.99"/>
    </edge>
    <edge id=":133046337_12" function="internal">
        <lane id=":133046337_12_0" index="0" disallow="tram rail_urban rail rail_electric rail_fast ship cable_car subway" speed="13.89" length="9.43" shape="747.39,9489.22 747.79,9479.80"/>
    </edge>
    <edge id=":133046337_13" function="internal">
        <lane id=":133046337_13_0" index="0" allow="pedestrian delivery bicycle" speed="6.89" length="1.73" shape="747.39,9489.22 747.71,9487.52"/>
    </edge>
    <edge id=":133046337_15" function="internal">
        <lane id=":133046337_15_0" index="0" allow="pedestrian delivery bicycle" speed="6.89" length="8.46" shape="747.71,9487.52 747.90,9486.48 749.17,9484.56 751.19,9483.45 753.97,9483.15"/>
    </edge>
    <edge id=":133046343_0" function="internal">
        <lane id=":133046343_0_0" index="0" disallow="tram rail_urban rail rail_electric rail_fast ship cable_car subway" speed="6.49" length="9.03" shape="753.98,9542.77 751.52,9543.03 749.73,9544.02 748.63,9545.73 748.21,9548.17"/>
    </edge>
    <edge id=":133046343_1" function="internal">
        <lane id=":133046343_1_0" index="0" disallow="tram rail_urban rail rail_electric rail_fast ship cable_car subway" speed="11.18" length="14.41" shape="753.98,9542.77 739.58,9542.23"/>
    </edge>
    <edge id=":133046343_2" function="internal">
        <lane id=":133046343_2_0" index="0" disallow="tram rail_urban rail rail_electric rail_fast ship cable_car subway" speed="8.00" length="4.07" shape="753.98,9542.77 750.14,9542.08 750.00,9541.98"/>
    </edge>
    <edge id=":133046343_3" function="internal">
        <lane id=":133046343_3_0" index="0" disallow="tram rail_urban rail rail_electric rail_fast ship cable_car subway" speed="3.65" length="1.44" shape="753.98,9542.77 752.81,9541.93"/>
    </edge>
    <edge id=":133046343_16" function="internal">
        <lane id=":133046343_16_0" index="0" disallow="tram rail_urban rail rail_electric rail_fast ship cable_car subway" speed="8.00" length="10.15" shape="750.00,9541.98 747.45,9540.32 745.91,9537.50 745.52,9533.63"/>
    </edge>
    <edge id=":133046343_17" function="internal">
        <lane id=":133046343_17_0" index="0" disallow="tram rail_urban rail rail_electric rail_fast ship cable_car subway" speed="3.65" length="3.23" shape="752.81,9541.93 752.44,9541.11 752.87,9540.33 754.10,9539.57"/>
    </edge>
    <edge id=":133046343_4" function="internal">
        <lane id=":133046343_4_0" index="0" disallow="tram rail_urban rail rail_electric rail_fast ship cable_car subway" speed="6.50" length="9.04" shape="748.72,9533.76 748.97,9536.22 749.95,9538.01 751.66,9539.13 754.10,9539.57"/>
    </edge>
    <edge id=":133046343_5" function="internal">
        <lane id=":133046343_5_0" index="0" disallow="tram rail_urban rail rail_electric rail_fast ship cable_car subway" speed="13.89" length="14.42" shape="748.72,9533.76 748.21,9548.17"/>
    </edge>
    <edge id=":133046343_6" function="internal">
        <lane id=":133046343_6_0" index="0" disallow="tram rail_urban rail rail_electric rail_fast ship cable_car subway" speed="8.02" length="14.20" shape="748.72,9533.76 748.01,9537.59 746.25,9540.28 743.44,9541.83 739.58,9542.23"/>
    </edge>
    <edge id=":133046343_7" function="internal">
        <lane id=":133046343_7_0" index="0" disallow="tram rail_urban rail rail_electric rail_fast ship cable_car subway" speed="3.65" length="4.67" shape="748.72,9533.76 747.87,9534.93 747.06,9535.29 746.27,9534.86 745.52,9533.63"/>
    </edge>
    <edge id=":133046343_8" function="internal">
        <lane id=":133046343_8_0" index="0" disallow="tram rail_urban rail rail_electric rail_fast ship cable_car subway" speed="6.53" length="9.06" shape="739.70,9539.04 742.16,9538.78 743.95,9537.79 745.07,9536.07 745.52,9533.63"/>
    </edge>
    <edge id=":133046343_9" function="internal">
        <lane id=":133046343_9_0" index="0" disallow="tram rail_urban rail rail_electric rail_fast ship cable_car subway" speed="11.18" length="14.41" shape="739.70,9539.04 754.10,9539.57"/>
    </edge>
    <edge id=":133046343_10" function="internal">
        <lane id=":133046343_10_0" index="0" disallow="tram rail_urban rail rail_electric rail_fast ship cable_car subway" speed="8.03" length="4.06" shape="739.70,9539.04 743.52,9539.73 743.67,9539.83"/>
    </edge>
    <edge id=":133046343_11" function="internal">
        <lane id=":133046343_11_0" index="0" disallow="tram rail_urban rail rail_electric rail_fast ship cable_car subway" speed="3.65" length="1.44" shape="739.70,9539.04 740.87,9539.88"/>
    </edge>
    <edge id=":133046343_18" function="internal">
        <lane id=":133046343_18_0" index="0" disallow="tram rail_urban rail rail_electric rail_fast ship cable_car subway" speed="8.03" length="10.15" shape="743.67,9539.83 746.21,9541.48 747.77,9544.30 748.21,9548.17"/>
    </edge>
    <edge id=":133046343_19" function="internal">
        <lane id=":133046343_19_0" index="0" disallow="tram rail_urban rail rail_electric rail_fast ship cable_car subway" speed="3.65" length="3.23" shape="740.87,9539.88 741.24,9540.69 740.81,9541.48 739.58,9542.23"/>
    </edge>
    <edge id=":133046343_12" function="internal">
        <lane id=":133046343_12_0" index="0" disallow="tram rail_urban rail rail_electric rail_fast ship cable_car subway" speed="6.54" length="9.08" shape="745.01,9548.08 744.73,9545.60 743.73,9543.80 742.02,9542.68 739.58,9542.23"/>
    </edge>
    <edge id=":133046343_13" function="internal">
        <lane id=":133046343_13_0" index="0" disallow="tram rail_urban rail rail_electric rail_fast ship cable_car subway" speed="13.89" length="14.46" shape="745.01,9548.08 745.52,9533.63"/>
    </edge>
    <edge id=":133046343_14" function="internal">
        <lane id=":133046343_14_0" index="0" disallow="tram rail_urban rail rail_electric rail_fast ship cable_car subway" speed="7.99" length="14.22" shape="745.01,9548.08 745.67,9544.23 747.41,9541.53 750.22,9539.98 754.10,9539.57"/>
    </edge>
    <edge id=":133046343_15" function="internal">
        <lane id=":133046343_15_0" index="0" disallow="tram rail_urban rail rail_electric rail_fast ship cable_car subway" speed="3.65" length="4.67" shape="745.01,9548.08 745.84,9546.90 746.65,9546.52 747.44,9546.95 748.21,9548.17"/>
    </edge>
    <edge id=":133046346_0" function="internal">
        <lane id=":133046346_0_0" index="0" allow="pedestrian delivery bicycle" speed="5.04" length="5.00" shape="749.69,9602.59 748.33,9602.74 747.35,9603.29 746.73,9604.24 746.50,9605.59"/>
    </edge>
    <edge id=":133046346_1" function="internal">
        <lane id=":133046346_1_0" index="0" allow="pedestrian delivery bicycle" speed="5.56" length="9.44" shape="749.69,9602.59 740.26,9602.25"/>
    </edge>
    <edge id=":133046346_2" function="internal">
        <lane id=":133046346_2_0" index="0" allow="pedestrian delivery bicycle" speed="6.88" length="10.19" shape="749.69,9602.59 746.95,9602.11 745.02,9600.86 743.90,9598.84 743.59,9596.06"/>
    </edge>
    <edge id=":133046346_3" function="internal">
        <lane id=":133046346_3_0" index="0" allow="pedestrian delivery bicycle" speed="3.65" length="4.67" shape="749.69,9602.59 748.52,9601.75 748.15,9600.94 748.57,9600.15 749.80,9599.39"/>
    </edge>
    <edge id=":133046346_4" function="internal">
        <lane id=":133046346_4_0" index="0" allow="pedestrian delivery bicycle" speed="5.06" length="5.04" shape="746.79,9596.16 746.94,9597.54 747.50,9598.53 748.45,9599.15 749.80,9599.39"/>
    </edge>
    <edge id=":133046346_5" function="internal">
        <lane id=":133046346_5_0" index="0" disallow="tram rail_urban rail rail_electric rail_fast ship cable_car subway" speed="13.89" length="9.44" shape="746.79,9596.16 746.50,9605.59"/>
    </edge>
    <edge id=":133046346_6" function="internal">
        <lane id=":133046346_6_0" index="0" allow="pedestrian delivery bicycle" speed="6.85" length="1.76" shape="746.79,9596.16 746.49,9597.90"/>
    </edge>
    <edge id=":133046346_14" function="internal">
        <lane id=":133046346_14_0" index="0" allow="pedestrian delivery bicycle" speed="6.85" length="8.44" shape="746.49,9597.90 746.31,9598.92 745.06,9600.85 743.05,9601.97 740.26,9602.25"/>
    </edge>
    <edge id=":133046346_7" function="internal">
        <lane id=":133046346_7_0" index="0" allow="pedestrian delivery bicycle" speed="5.03" length="5.01" shape="740.39,9599.06 741.75,9598.91 742.74,9598.37 743.36,9597.42 743.59,9596.06"/>
    </edge>
    <edge id=":133046346_8" function="internal">
        <lane id=":133046346_8_0" index="0" allow="pedestrian delivery bicycle" speed="5.56" length="9.42" shape="740.39,9599.06 749.80,9599.39"/>
    </edge>
    <edge id=":133046346_9" function="internal">
        <lane id=":133046346_9_0" index="0" allow="pedestrian delivery bicycle" speed="6.89" length="10.19" shape="740.39,9599.06 743.14,9599.56 745.07,9600.81 746.19,9602.82 746.50,9605.59"/>
    </edge>
    <edge id=":133046346_10" function="internal">
        <lane id=":133046346_10_0" index="0" allow="pedestrian delivery bicycle" speed="3.65" length="4.67" shape="740.39,9599.06 741.55,9599.90 741.92,9600.72 741.49,9601.50 740.26,9602.25"/>
    </edge>
    <edge id=":133046346_11" function="internal">
        <lane id=":133046346_11_0" index="0" allow="pedestrian delivery bicycle" speed="5.07" length="5.05" shape="743.30,9605.48 743.15,9604.12 742.59,9603.12 741.63,9602.50 740.26,9602.25"/>
    </edge>
    <edge id=":133046346_12" function="internal">
        <lane id=":133046346_12_0" index="0" disallow="tram rail_urban rail rail_electric rail_fast ship cable_car subway" speed="13.89" length="9.43" shape="743.30,9605.48 743.59,9596.06"/>
    </edge>
    <edge id=":133046346_13" function="internal">
        <lane id=":133046346_13_0" index="0" allow="pedestrian delivery bicycle" speed="6.86" length="1.75" shape="743.30,9605.48 743.60,9603.76"/>
    </edge>
    <edge id=":133046346_15" function="internal">
        <lane id=":133046346_15_0" index="0" allow="pedestrian delivery bicycle" speed="6.86" length="8.41" shape="743.60,9603.76 743.78,9602.74 745.03,9600.81 747.03,9599.70 749.80,9599.39"/>
    </edge>
    <edge id=":133046349_0" function="internal">
        <lane id=":133046349_0_0" index="0" disallow="tram rail_urban rail rail_electric rail_fast ship cable_car subway" speed="6.51" length="9.04" shape="750.25,9661.68 747.79,9661.94 746.00,9662.92 744.88,9664.64 744.44,9667.08"/>
    </edge>
    <edge id=":133046349_1" function="internal">
        <lane id=":133046349_1_0" index="0" disallow="tram rail_urban rail rail_electric rail_fast ship cable_car subway" speed="13.89" length="14.40" shape="750.25,9661.68 735.86,9661.15"/>
    </edge>
    <edge id=":133046349_2" function="internal">
        <lane id=":133046349_2_0" index="0" disallow="tram rail_urban rail rail_electric rail_fast ship cable_car subway" speed="8.02" length="4.06" shape="750.25,9661.68 746.43,9660.99 746.28,9660.89"/>
    </edge>
    <edge id=":133046349_3" function="internal">
        <lane id=":133046349_3_0" index="0" disallow="tram rail_urban rail rail_electric rail_fast ship cable_car subway" speed="3.65" length="1.44" shape="750.25,9661.68 749.08,9660.84"/>
    </edge>
    <edge id=":133046349_16" function="internal">
        <lane id=":133046349_16_0" index="0" disallow="tram rail_urban rail rail_electric rail_fast ship cable_car subway" speed="8.02" length="10.15" shape="746.28,9660.89 743.74,9659.23 742.18,9656.42 741.76,9652.55"/>
    </edge>
    <edge id=":133046349_17" function="internal">
        <lane id=":133046349_17_0" index="0" disallow="tram rail_urban rail rail_electric rail_fast ship cable_car subway" speed="3.65" length="3.23" shape="749.08,9660.84 748.71,9660.02 749.14,9659.24 750.37,9658.48"/>
    </edge>
    <edge id=":133046349_4" function="internal">
        <lane id=":133046349_4_0" index="0" disallow="tram rail_urban rail rail_electric rail_fast ship cable_car subway" speed="6.53" length="9.06" shape="744.95,9652.66 745.22,9655.13 746.22,9656.92 747.93,9658.04 750.37,9658.48"/>
    </edge>
    <edge id=":133046349_5" function="internal">
        <lane id=":133046349_5_0" index="0" disallow="tram rail_urban rail rail_electric rail_fast ship cable_car subway" speed="13.89" length="14.43" shape="744.95,9652.66 744.44,9667.08"/>
    </edge>
    <edge id=":133046349_6" function="internal">
        <lane id=":133046349_6_0" index="0" disallow="tram rail_urban rail rail_electric rail_fast ship cable_car subway" speed="8.00" length="14.21" shape="744.95,9652.66 744.28,9656.49 742.54,9659.19 739.73,9660.74 735.86,9661.15"/>
    </edge>
    <edge id=":133046349_7" function="internal">
        <lane id=":133046349_7_0" index="0" disallow="tram rail_urban rail rail_electric rail_fast ship cable_car subway" speed="3.65" length="4.67" shape="744.95,9652.66 744.12,9653.83 743.30,9654.20 742.52,9653.78 741.76,9652.55"/>
    </edge>
    <edge id=":133046349_8" function="internal">
        <lane id=":133046349_8_0" index="0" disallow="tram rail_urban rail rail_electric rail_fast ship cable_car subway" speed="6.50" length="9.03" shape="735.97,9657.95 738.43,9657.69 740.22,9656.70 741.33,9654.99 741.76,9652.55"/>
    </edge>
    <edge id=":133046349_9" function="internal">
        <lane id=":133046349_9_0" index="0" disallow="tram rail_urban rail rail_electric rail_fast ship cable_car subway" speed="13.89" length="14.41" shape="735.97,9657.95 750.37,9658.48"/>
    </edge>
    <edge id=":133046349_10" function="internal">
        <lane id=":133046349_10_0" index="0" disallow="tram rail_urban rail rail_electric rail_fast ship cable_car subway" speed="8.00" length="4.08" shape="735.97,9657.95 739.80,9658.64 739.96,9658.74"/>
    </edge>
    <edge id=":133046349_11" function="internal">
        <lane id=":133046349_11_0" index="0" disallow="tram rail_urban rail rail_electric rail_fast ship cable_car subway" speed="3.65" length="1.44" shape="735.97,9657.95 737.14,9658.80"/>
    </edge>
    <edge id=":133046349_18" function="internal">
        <lane id=":133046349_18_0" index="0" disallow="tram rail_urban rail rail_electric rail_fast ship cable_car subway" speed="8.00" length="10.13" shape="739.96,9658.74 742.49,9660.39 744.04,9663.20 744.44,9667.08"/>
    </edge>
    <edge id=":133046349_19" function="internal">
        <lane id=":133046349_19_0" index="0" disallow="tram rail_urban rail rail_electric rail_fast ship cable_car subway" speed="3.65" length="3.23" shape="737.14,9658.80 737.51,9659.61 737.08,9660.39 735.86,9661.15"/>
    </edge>
    <edge id=":133046349_12" function="internal">
        <lane id=":133046349_12_0" index="0" disallow="tram rail_urban rail rail_electric rail_fast ship cable_car subway" speed="6.50" length="9.03" shape="741.24,9666.95 740.98,9664.49 740.00,9662.70 738.29,9661.59 735.86,9661.15"/>
    </edge>
    <edge id=":133046349_13" function="internal">
        <lane id=":133046349_13_0" index="0" disallow="tram rail_urban rail rail_electric rail_fast ship cable_car subway" speed="13.89" length="14.41" shape="741.24,9666.95 741.76,9652.55"/>
    </edge>
    <edge id=":133046349_14" function="internal">
        <lane id=":133046349_14_0" index="0" disallow="tram rail_urban rail rail_electric rail_fast ship cable_car subway" speed="8.01" length="14.20" shape="741.24,9666.95 741.94,9663.12 743.69,9660.43 746.50,9658.89 750.37,9658.48"/>
    </edge>
    <edge id=":133046349_15" function="internal">
        <lane id=":133046349_15_0" index="0" disallow="tram rail_urban rail rail_electric rail_fast ship cable_car subway" speed="3.65" length="4.67" shape="741.24,9666.95 742.08,9665.79 742.90,9665.42 743.68,9665.85 744.44,9667.08"/>
    </edge>
    <edge id=":133046350_0" function="internal">
        <lane id=":133046350_0_0" index="0" allow="pedestrian delivery bicycle" speed="5.08" length="5.05" shape="745.47,9721.12 744.08,9721.28 743.08,9721.83 742.45,9722.79 742.21,9724.14"/>
    </edge>
    <edge id=":133046350_1" function="internal">
        <lane id=":133046350_1_0" index="0" allow="pedestrian delivery bicycle" speed="5.56" length="9.45" shape="745.47,9721.12 736.02,9720.81"/>
    </edge>
    <edge id=":133046350_2" function="internal">
        <lane id=":133046350_2_0" index="0" allow="pedestrian delivery bicycle" speed="6.85" length="10.21" shape="745.47,9721.12 742.71,9720.65 740.77,9719.40 739.65,9717.38 739.37,9714.60"/>
    </edge>
    <edge id=":133046350_3" function="internal">
        <lane id=":133046350_3_0" index="0" allow="pedestrian delivery bicycle" speed="3.65" length="4.67" shape="745.47,9721.12 744.29,9720.29 743.91,9719.48 744.34,9718.69 745.56,9717.92"/>
    </edge>
    <edge id=":133046350_4" function="internal">
        <lane id=":133046350_4_0" index="0" allow="pedestrian delivery bicycle" speed="5.03" length="5.01" shape="742.56,9714.72 742.71,9716.09 743.25,9717.08 744.20,9717.69 745.56,9717.92"/>
    </edge>
    <edge id=":133046350_5" function="internal">
        <lane id=":133046350_5_0" index="0" disallow="tram rail_urban rail rail_electric rail_fast ship cable_car subway" speed="13.89" length="9.42" shape="742.56,9714.72 742.21,9724.14"/>
    </edge>
    <edge id=":133046350_6" function="internal">
        <lane id=":133046350_6_0" index="0" allow="pedestrian delivery bicycle" speed="6.87" length="1.73" shape="742.56,9714.72 742.25,9716.43"/>
    </edge>
    <edge id=":133046350_14" function="internal">
        <lane id=":133046350_14_0" index="0" allow="pedestrian delivery bicycle" speed="6.87" length="8.45" shape="742.25,9716.43 742.06,9717.48 740.80,9719.41 738.79,9720.52 736.02,9720.81"/>
    </edge>
    <edge id=":133046350_7" function="internal">
        <lane id=":133046350_7_0" index="0" allow="pedestrian delivery bicycle" speed="5.05" length="5.03" shape="736.15,9717.61 737.51,9717.47 738.50,9716.92 739.12,9715.96 739.37,9714.60"/>
    </edge>
    <edge id=":133046350_8" function="internal">
        <lane id=":133046350_8_0" index="0" allow="pedestrian delivery bicycle" speed="5.56" length="9.42" shape="736.15,9717.61 745.56,9717.92"/>
    </edge>
    <edge id=":133046350_9" function="internal">
        <lane id=":133046350_9_0" index="0" allow="pedestrian delivery bicycle" speed="6.87" length="10.15" shape="736.15,9717.61 738.88,9718.11 740.81,9719.36 741.92,9721.37 742.21,9724.14"/>
    </edge>
    <edge id=":133046350_10" function="internal">
        <lane id=":133046350_10_0" index="0" allow="pedestrian delivery bicycle" speed="3.65" length="4.67" shape="736.15,9717.61 737.31,9718.45 737.68,9719.27 737.25,9720.05 736.02,9720.81"/>
    </edge>
    <edge id=":133046350_11" function="internal">
        <lane id=":133046350_11_0" index="0" allow="pedestrian delivery bicycle" speed="5.05" length="5.00" shape="739.01,9724.02 738.87,9722.66 738.32,9721.67 737.37,9721.05 736.02,9720.81"/>
    </edge>
    <edge id=":133046350_12" function="internal">