<routes xmlns:xsi="http://www.w3.org/2001/XMLSchema-instance" xsi:noNamespaceSchemaLocation="http://sumo.dlr.de/xsd/routes_file.xsd">
    <trip id="3352" depart="3352.00" from="-14025159#6" to="-683044783#3" />
    <trip id="231" depart="231.00" from="-14026336#9" to="-14027172#3" />
    <trip id="1009" depart="1009.00" from="-682551442#6" to="14026336#8" />
    <trip id="501" depart="501.00" from="14024684#4" to="683050819" />
    <trip id="3266" depart="3266.00" from="14026096#4" to="14026096#1" />
    <trip id="3473" depart="3473.00" from="14026676#2" to="14025708#2" />
    <trip id="273" depart="273.00" from="683047943#1" to="-682553779#1" />
    <trip id="2195" depart="2195.00" from="-14026010" to="-14019571#0" />
    <trip id="1407" depart="1407.00" from="14026019#1" to="-14026336#7" />
    <trip id="65" depart="65.00" from="-14026768#1" to="-14024684#5" />
    <trip id="893" depart="893.00" from="14026251#1" to="-625743592" />
    <trip id="1371" depart="1371.00" from="14019569#2" to="14026504#5" />
    <trip id="3294" depart="3294.00" from="-14026251#0" to="-14021132#0" />
    <trip id="232" depart="232.00" from="14024684#10" to="-14025386#1" />
    <trip id="671" depart="671.00" from="14027172#1" to="-683050822#3" />
    <trip id="834" depart="834.00" from="14024684#1" to="625743596" />
    <trip id="1349" depart="1349.00" from="-682551442#14" to="-14026336#4" />
    <trip id="1288" depart="1288.00" from="14026251#9" to="-14025159#5" />
    <trip id="261" depart="261.00" from="14025708#1" to="14026504#9" />
    <trip id="3440" depart="3440.00" from="-14026504#7" to="-683047943#1" />
    <trip id="2297" depart="2297.00" from="14025159#6" to="14020103" />
    <trip id="1527" depart="1527.00" from="-14026007#0" to="682551446#1" />
    <trip id="2338" depart="2338.00" from="-14026251#9" to="-14024696#0" />
    <trip id="657" depart="657.00" from="-14026100#4" to="-14025386#0" />
    <trip id="105" depart="105.00" from="-14026336#5" to="14026676#0" />
    <trip id="595" depart="595.00" from="14026100#3" to="-683043814#6" />
    <trip id="1934" depart="1934.00" from="14019571#0" to="-14019622#2" />
    <trip id="3532" depart="3532.00" from="14026530" to="-683270315" />
    <trip id="2092" depart="2092.00" from="-683270315" to="14025222#8" />
    <trip id="2501" depart="2501.00" from="14019623" to="14025398#2" />
    <trip id="2766" depart="2766.00" from="14025159#5" to="14019569#4" />
    <trip id="1942" depart="1942.00" from="-683047946#6" to="14019622#2" />
    <trip id="228" depart="228.00" from="14026504#1" to="14021132#1" />
    <trip id="1388" depart="1388.00" from="14027172#7" to="-14024710#0" />
    <trip id="3496" depart="3496.00" from="-625743585#1" to="-14026504#7" />
    <trip id="2889" depart="2889.00" from="-14025159#9" to="-683270320" />
    <trip id="1840" depart="1840.00" from="-14026336#0" to="-14027562#0" />
    <trip id="1344" depart="1344.00" from="14027172#0" to="-14026504#0" />
    <trip id="626" depart="626.00" from="14024684#9" to="14026768#1" />
    <trip id="56" depart="56.00" from="14019569#6" to="-14026007#1" />
    <trip id="12" depart="12.00" from="683047943#1" to="-14027562#4" />
    <trip id="1863" depart="1863.00" from="682553782" to="14027562#0" />
    <trip id="1156" depart="1156.00" from="14024684#3" to="14026768#1" />
    <trip id="2480" depart="2480.00" from="-683043814#2" to="-14026007#1" />
    <trip id="3518" depart="3518.00" from="-682551442#2" to="683047942#0" />
    <trip id="846" depart="846.00" from="-14026059" to="14019622#1" />
    <trip id="908" depart="908.00" from="-14026937#4" to="14025701#1" />
    <trip id="1049" depart="1049.00" from="14019569#0" to="683043808#0" />
    <trip id="2609" depart="2609.00" from="14027172#4" to="14026504#4" />
    <trip id="515" depart="515.00" from="-14026326#1" to="-14026005" />
    <trip id="1174" depart="1174.00" from="-14025386#0" to="-14026937#3" />
    <trip id="1200" depart="1200.00" from="14027172#4" to="14026100#1" />
    <trip id="954" depart="954.00" from="-14024684#7" to="14024684#8" />
    <trip id="1849" depart="1849.00" from="14019569#9" to="-683043814#5" />
    <trip id="2726" depart="2726.00" from="683043814#0" to="-14026504#2" />
    <trip id="603" depart="603.00" from="-14027562#1" to="-14027562#2" />
    <trip id="915" depart="915.00" from="-682553774#1" to="14019569#8" />
    <trip id="806" depart="806.00" from="14025708#2" to="14026504#2" />
    <trip id="2623" depart="2623.00" from="683050822#3" to="-683043808#2" />
    <trip id="418" depart="418.00" from="14025894#1" to="-14025701#1" />
    <trip id="2722" depart="2722.00" from="14024710#0" to="683047946#3" />
    <trip id="1449" depart="1449.00" from="-14026100#0" to="625743595" />
    <trip id="1069" depart="1069.00" from="-682553774#1" to="-682551442#8" />
    <trip id="3374" depart="3374.00" from="14026096#3" to="-682553779#0" />
    <trip id="673" depart="673.00" from="683044783#6" to="683050822#2" />
    <trip id="1148" depart="1148.00" from="14027172#7" to="14026834" />
    <trip id="3144" depart="3144.00" from="-14024684#9" to="14026937#2" />
    <trip id="3239" depart="3239.00" from="-14026059" to="-683043814#4" />
    <trip id="1360" depart="1360.00" from="-14026336#9" to="-14024710#1" />
    <trip id="1218" depart="1218.00" from="-14024710#3" to="-14019622#2" />
    <trip id="3351" depart="3351.00" from="-14024696#0" to="-14024684#0" />
    <trip id="3497" depart="3497.00" from="14026676#0" to="14026251#1" />
    <trip id="2101" depart="2101.00" from="14026096#1" to="-14026005" />
    <trip id="3105" depart="3105.00" from="14026100#1" to="14019569#5" />
    <trip id="1325" depart="1325.00" from="14025222#3" to="-14026504#3" />
    <trip id="496" depart="496.00" from="14019569#0" to="-683043814#1" />
    <trip id="3388" depart="3388.00" from="14024710#2" to="625743585#1" />
    <trip id="2188" depart="2188.00" from="682553781" to="14027172#1" />
    <trip id="3324" depart="3324.00" from="-14024694#1" to="683047942#0" />
    <trip id="143" depart="143.00" from="625743595" to="-14025159#0" />
    <trip id="507" depart="507.00" from="14026676#1" to="-14026326#1" />
    <trip id="1701" depart="1701.00" from="14019569#4" to="-14026096#8" />
    <trip id="289" depart="289.00" from="-683044783#5" to="14026314" />
    <trip id="2438" depart="2438.00" from="-682553774#1" to="-14026834" />
    <trip id="2215" depart="2215.00" from="-683050822#1" to="14026024#1" />
    <trip id="858" depart="858.00" from="683050822#0" to="14025159#2" />
    <trip id="1087" depart="1087.00" from="-14026937#1" to="683047946#0" />
    <trip id="2085" depart="2085.00" from="682551442#7" to="-14026096#7" />
    <trip id="1336" depart="1336.00" from="14026336#1" to="-14025222#12" />
    <trip id="2902" depart="2902.00" from="-14024684#9" to="682553774#2" />
    <trip id="2193" depart="2193.00" from="14025398#2" to="14025222#6" />
    <trip id="449" depart="449.00" from="14024710#3" to="14024835#4" />
    <trip id="2697" depart="2697.00" from="682551442#6" to="-14019569#6" />
    <trip id="1662" depart="1662.00" from="683047946#2" to="-682551446#1" />
    <trip id="1415" depart="1415.00" from="-682551442#4" to="14025398#1" />
    <trip id="815" depart="815.00" from="-14026937#0" to="14026251#3" />
    <trip id="1673" depart="1673.00" from="14025159#7" to="-14027562#4" />
    <trip id="2847" depart="2847.00" from="14025398#3" to="14025222#3" />
    <trip id="6" depart="6.00" from="-14019622#0" to="-14026096#3" />
    <trip id="713" depart="713.00" from="14025398#2" to="683050822#0" />
    <trip id="1177" depart="1177.00" from="-683044783#6" to="14026096#6" />
    <trip id="22" depart="22.00" from="-14024710#1" to="-14026251#6" />
    <trip id="3183" depart="3183.00" from="-14025386#0" to="-14025222#0" />
    <trip id="3027" depart="3027.00" from="-14026100#1" to="682551442#12" />
    <trip id="540" depart="540.00" from="-683047943#2" to="-14026251#4" />
    <trip id="2606" depart="2606.00" from="14024684#9" to="14027562#0" />
    <trip id="2465" depart="2465.00" from="-14025222#5" to="-14026096#5" />
    <trip id="1790" depart="1790.00" from="14025159#9" to="682551446#0" />
    <trip id="1549" depart="1549.00" from="14025222#9" to="625743585#1" />
    <trip id="3127" depart="3127.00" from="14024710#1" to="682553779#1" />
    <trip id="2054" depart="2054.00" from="14019622#1" to="14026326#2" />
    <trip id="58" depart="58.00" from="-14026530" to="14025399" />
    <trip id="665" depart="665.00" from="14027172#1" to="-14025894#2" />
    <trip id="2278" depart="2278.00" from="14021132#0" to="-14026336#1" />
    <trip id="2839" depart="2839.00" from="-14025222#7" to="14026251#4" />
    <trip id="2015" depart="2015.00" from="14026768#0" to="14025005" />
    <trip id="1281" depart="1281.00" from="14026100#0" to="-14019569#0" />
    <trip id="3302" depart="3302.00" from="682551442#5" to="-14026010" />
    <trip id="326" depart="326.00" from="683044783#3" to="-683270320" />
    <trip id="2988" depart="2988.00" from="14026096#1" to="-14026326#1" />
    <trip id="1481" depart="1481.00" from="683047939#0" to="683047939#0" />
    <trip id="371" depart="371.00" from="-14027172#4" to="14026096#5" />
    <trip id="2379" depart="2379.00" from="14025222#8" to="-14026251#8" />
    <trip id="2218" depart="2218.00" from="683044783#1" to="14021132#1" />
    <trip id="2483" depart="2483.00" from="14026676#2" to="-14026007#0" />
    <trip id="3170" depart="3170.00" from="-683047946#6" to="14024696#1" />
    <trip id="445" depart="445.00" from="14025398#3" to="-683044783#3" />
    <trip id="2272" depart="2272.00" from="14026100#3" to="14027562#1" />
    <trip id="2049" depart="2049.00" from="-14025708#3" to="-14021132#0" />
    <trip id="3015" depart="3015.00" from="-14026010" to="682553777#0" />
    <trip id="3248" depart="3248.00" from="-14026336#3" to="-14024835#3" />
    <trip id="1399" depart="1399.00" from="683047946#2" to="-14026096#8" />
    <trip id="1030" depart="1030.00" from="14024684#8" to="14026504#6" />
    <trip id="239" depart="239.00" from="682551442#12" to="14026504#1" />
    <trip id="2392" depart="2392.00" from="14024684#3" to="-14026096#7" />
    <trip id="1752" depart="1752.00" from="-682553779#1" to="-14026251#7" />
    <trip id="1758" depart="1758.00" from="14024694#1" to="-14019569#0" />
    <trip id="219" depart="219.00" from="-683047946#2" to="14026937#2" />
    <trip id="3072" depart="3072.00" from="-14024835#0" to="-14025398#1" />
    <trip id="3394" depart="3394.00" from="-683270327" to="14019569#3" />
    <trip id="2744" depart="2744.00" from="-14026336#6" to="14026096#8" />
    <trip id="3549" depart="3549.00" from="-14026017" to="-683270315" />
    <trip id="635" depart="635.00" from="-683047939#0" to="14021132#2" />
    <trip id="1975" depart="1975.00" from="-14026096#5" to="-14025894#0" />
    <trip id="3311" depart="3311.00" from="14026024#1" to="-682553776" />
    <trip id="1015" depart="1015.00" from="-14026251#7" to="-14026096#5" />
    <trip id="1703" depart="1703.00" from="-14019569#1" to="14026010" />
    <trip id="1013" depart="1013.00" from="14024696#0" to="683047946#3" />
    <trip id="2863" depart="2863.00" from="-14026251#6" to="14024696#0" />
    <trip id="1556" depart="1556.00" from="14019624" to="-683044783#0" />
    <trip id="370" depart="370.00" from="14026007#1" to="682551442#12" />
    <trip id="2389" depart="2389.00" from="-14026100#4" to="-14026314" />
    <trip id="2127" depart="2127.00" from="-683047943#1" to="-14027562#3" />
    <trip id="82" depart="82.00" from="682551442#13" to="-14024694#2" />
    <trip id="2557" depart="2557.00" from="682553774#2" to="-14027172#3" />
    <trip id="1210" depart="1210.00" from="14019569#0" to="-14025398#0" />
    <trip id="3331" depart="3331.00" from="-14025222#11" to="14019569#5" />
    <trip id="3194" depart="3194.00" from="-683047939#0" to="-14026336#4" />
    <trip id="3137" depart="3137.00" from="625743596" to="14026676#2" />
    <trip id="406" depart="406.00" from="-14026010" to="14026096#7" />
    <trip id="265" depart="265.00" from="-14025222#2" to="14026007#1" />
    <trip id="2269" depart="2269.00" from="14026937#2" to="-14024684#7" />
    <trip id="3305" depart="3305.00" from="14025159#1" to="14025159#2" />
    <trip id="1610" depart="1610.00" from="-14026326#1" to="-683050822#2" />
    <trip id="136" depart="136.00" from="14025944#1" to="683044783#2" />
    <trip id="1073" depart="1073.00" from="14025894#0" to="682551442#13" />
    <trip id="704" depart="704.00" from="-14019569#8" to="14019624" />
    <trip id="3159" depart="3159.00" from="14025222#9" to="14021132#2" />
    <trip id="3269" depart="3269.00" from="-14025005" to="-14024684#6" />
    <trip id="2060" depart="2060.00" from="683043814#4" to="14024835#4" />
    <trip id="3524" depart="3524.00" from="14026768#1" to="-14025398#1" />
    <trip id="947" depart="947.00" from="-683043814#1" to="14024684#9" />
    <trip id="2434" depart="2434.00" from="14019622#2" to="-682553779#0" />
    <trip id="102" depart="102.00" from="-683270320" to="-14026100#1" />
    <trip id="1492" depart="1492.00" from="-683047942#1" to="-14026336#9" />
    <trip id="316" depart="316.00" from="-14026504#2" to="-14025159#4" />
    <trip id="555" depart="555.00" from="14024835#3" to="-14026100#0" />
    <trip id="1373" depart="1373.00" from="14026436" to="-14026326#2" />
    <trip id="1808" depart="1808.00" from="14026005" to="-683043814#6" />
    <trip id="824" depart="824.00" from="-14025701#0" to="-14027172#7" />
    <trip id="2349" depart="2349.00" from="14026351" to="682551442#10" />
    <trip id="1274" depart="1274.00" from="14025708#1" to="-14025708#2" />
    <trip id="1238" depart="1238.00" from="-14026096#3" to="-14026096#7" />
    <trip id="2467" depart="2467.00" from="-683047946#3" to="682551442#11" />
    <trip id="2730" depart="2730.00" from="14026504#7" to="-682551446#0" />
    <trip id="137" depart="137.00" from="-14025222#6" to="-14025222#10" />
    <trip id="3056" depart="3056.00" from="-14026096#7" to="-14026251#3" />
    <trip id="2869" depart="2869.00" from="682551442#12" to="14026336#4" />
    <trip id="628" depart="628.00" from="14027172#2" to="14025708#2" />
    <trip id="667" depart="667.00" from="14026019#0" to="-14026251#9" />
    <trip id="3446" depart="3446.00" from="-14026251#9" to="14027172#1" />
    <trip id="1479" depart="1479.00" from="-14026768#1" to="14026096#2" />
    <trip id="3146" depart="3146.00" from="14026834" to="14025708#2" />
    <trip id="529" depart="529.00" from="14026096#1" to="14019569#5" />
    <trip id="2542" depart="2542.00" from="-14019571#3" to="14019569#1" />
    <trip id="318" depart="318.00" from="-14025944#1" to="-14019569#7" />
    <trip id="390" depart="390.00" from="625743585#0" to="14019569#9" />
    <trip id="2719" depart="2719.00" from="14026100#2" to="-14025222#13" />
    <trip id="1002" depart="1002.00" from="-14024684#6" to="683047939#0" />
    <trip id="1824" depart="1824.00" from="14025944#2" to="683043814#2" />
    <trip id="1907" depart="1907.00" from="625743585#1" to="-14026096#0" />
    <trip id="2336" depart="2336.00" from="14025708#2" to="-14026096#1" />
    <trip id="3457" depart="3457.00" from="-14019569#5" to="14027172#0" />
    <trip id="653" depart="653.00" from="14025701#1" to="-683044783#2" />
    <trip id="945" depart="945.00" from="-14025222#6" to="-14025701#0" />
    <trip id="2148" depart="2148.00" from="683047946#2" to="-683043814#4" />
    <trip id="2787" depart="2787.00" from="14026937#4" to="-683044783#4" />
    <trip id="901" depart="901.00" from="-14024684#2" to="-683043814#4" />
    <trip id="1102" depart="1102.00" from="14019569#1" to="-682551442#12" />
    <trip id="2375" depart="2375.00" from="-14019571#1" to="-14026336#0" />
    <trip id="1589" depart="1589.00" from="-14026351" to="14027562#1" />
    <trip id="3472" depart="3472.00" from="-14026096#2" to="14024684#7" />
    <trip id="2801" depart="2801.00" from="-14019569#3" to="-14026007#1" />
    <trip id="2100" depart="2100.00" from="14019569#7" to="-682553776" />
    <trip id="2096" depart="2096.00" from="683043808#0" to="-14026504#4" />
    <trip id="3171" depart="3171.00" from="-683044783#5" to="14025708#0" />
    <trip id="3369" depart="3369.00" from="-683050822#4" to="14026096#4" />
    <trip id="3383" depart="3383.00" from="-683050822#2" to="-14019571#1" />
    <trip id="576" depart="576.00" from="14026017" to="-14026504#0" />
    <trip id="2901" depart="2901.00" from="14027172#1" to="683044783#3" />
    <trip id="3539" depart="3539.00" from="-14026251#2" to="-682553779#0" />
    <trip id="618" depart="618.00" from="-14024694#0" to="-683047943#1" />
    <trip id="1514" depart="1514.00" from="14026251#5" to="14026251#9" />
    <trip id="2343" depart="2343.00" from="14025159#5" to="-14019571#2" />
    <trip id="380" depart="380.00" from="14026336#9" to="14025386#0" />
    <trip id="35" depart="35.00" from="-14026096#5" to="683044783#4" />
    <trip id="488" depart="488.00" from="-14025222#9" to="683044783#6" />
    <trip id="1986" depart="1986.00" from="683270311" to="682551442#5" />
    <trip id="2289" depart="2289.00" from="-14027172#1" to="-682551442#7" />
    <trip id="2106" depart="2106.00" from="14025222#13" to="-14026336#6" />
    <trip id="1165" depart="1165.00" from="-14019569#5" to="-14026336#6" />
    <trip id="2239" depart="2239.00" from="-14025222#7" to="682553777#1" />
    <trip id="1876" depart="1876.00" from="14026336#4" to="-14025701#1" />
    <trip id="650" depart="650.00" from="14027172#4" to="14026007#1" />
    <trip id="1584" depart="1584.00" from="682551442#1" to="682551445#1" />
    <trip id="457" depart="457.00" from="14025222#10" to="-682551442#10" />
    <trip id="570" depart="570.00" from="14026336#4" to="-14026100#2" />
    <trip id="1722" depart="1722.00" from="-682551445#1" to="682551442#1" />
    <trip id="1108" depart="1108.00" from="14026100#4" to="14025398#3" />
    <trip id="1531" depart="1531.00" from="-14024684#6" to="14026336#7" />
    <trip id="770" depart="770.00" from="625743595" to="-14027172#2" />
    <trip id="1946" depart="1946.00" from="-14025708#1" to="14019624" />
    <trip id="1834" depart="1834.00" from="683047946#1" to="-14026676#1" />
    <trip id="1835" depart="1835.00" from="-14025894#3" to="14026059" />
    <trip id="1322" depart="1322.00" from="14025386#0" to="14019571#1" />
    <trip id="2284" depart="2284.00" from="-14025708#2" to="-14026010" />
    <trip id="3501" depart="3501.00" from="14027562#1" to="-682551442#2" />
    <trip id="651" depart="651.00" from="14027562#4" to="14026336#0" />
    <trip id="340" depart="340.00" from="14025944#0" to="-14025708#1" />
    <trip id="2949" depart="2949.00" from="-14026768#1" to="-683043808#0" />
    <trip id="3114" depart="3114.00" from="683050819" to="-14027172#3" />
    <trip id="2364" depart="2364.00" from="-14024684#2" to="14025894#0" />
    <trip id="1707" depart="1707.00" from="14026251#6" to="-14025159#5" />
    <trip id="3093" depart="3093.00" from="-14025159#0" to="-14024710#0" />
    <trip id="2544" depart="2544.00" from="683043814#1" to="14026314" />
    <trip id="1356" depart="1356.00" from="682551442#12" to="14024694#1" />
    <trip id="2464" depart="2464.00" from="14025222#9" to="-14025222#11" />
    <trip id="2388" depart="2388.00" from="14025222#13" to="14025386#0" />
    <trip id="2711" depart="2711.00" from="14026010" to="14027562#5" />
    <trip id="1146" depart="1146.00" from="14026100#2" to="-683047942#1" />
    <trip id="3529" depart="3529.00" from="-625743585#0" to="682551442#6" />
    <trip id="1120" depart="1120.00" from="682553779#2" to="683050819" />
    <trip id="2605" depart="2605.00" from="14025159#4" to="-683050822#0" />
    <trip id="2591" depart="2591.00" from="14025222#1" to="-14025222#5" />
    <trip id="974" depart="974.00" from="682551442#6" to="682553781" />
    <trip id="3347" depart="3347.00" from="-683050822#4" to="-14025398#4" />
    <trip id="1307" depart="1307.00" from="14019622#1" to="14019622#1" />
    <trip id="2377" depart="2377.00" from="-682551447" to="-14025708#0" />
    <trip id="979" depart="979.00" from="14021132#1" to="14026251#8" />
    <trip id="1878" depart="1878.00" from="-14024835#1" to="-14024684#4" />
    <trip id="3080" depart="3080.00" from="14026251#0" to="14025159#1" />
    <trip id="3163" depart="3163.00" from="-14026937#3" to="14027562#5" />
    <trip id="809" depart="809.00" from="-14026504#5" to="683047943#0" />
    <trip id="3117" depart="3117.00" from="14026336#2" to="-14019622#0" />
    <trip id="3530" depart="3530.00" from="-683043814#2" to="14024835#3" />
    <trip id="1014" depart="1014.00" from="14024694#1" to="-14025222#8" />
    <trip id="2435" depart="2435.00" from="14026326#1" to="14024696#0" />
    <trip id="332" depart="332.00" from="14026504#0" to="14025222#12" />
    <trip id="3513" depart="3513.00" from="-14025222#3" to="14026100#4" />
    <trip id="125" depart="125.00" from="-14026937#2" to="14026336#7" />
    <trip id="3272" depart="3272.00" from="683044783#2" to="683047946#3" />
    <trip id="2525" depart="2525.00" from="14026251#6" to="-14027172#0" />
    <trip id="2473" depart="2473.00" from="14024684#5" to="14025222#7" />
    <trip id="3520" depart="3520.00" from="-14025222#11" to="14024835#2" />
    <trip id="1338" depart="1338.00" from="-14025708#0" to="683047942#0" />
    <trip id="1040" depart="1040.00" from="14024835#3" to="-683043814#6" />
    <trip id="3284" depart="3284.00" from="682551442#7" to="625743585#1" />
    <trip id="1919" depart="1919.00" from="-14026768#0" to="14025159#2" />
    <trip id="2731" depart="2731.00" from="-14027172#5" to="-14024684#7" />
    <trip id="1582" depart="1582.00" from="-14025701#0" to="-14026937#3" />
    <trip id="2456" depart="2456.00" from="14019571#2" to="683047939#1" />
    <trip id="368" depart="368.00" from="14019569#2" to="-14025005" />
    <trip id="104" depart="104.00" from="-682551442#7" to="683050822#3" />
    <trip id="2061" depart="2061.00" from="-14026336#3" to="-683043814#0" />
    <trip id="2013" depart="2013.00" from="682551445#0" to="-683043814#1" />
    <trip id="1992" depart="1992.00" from="-683047946#0" to="14025159#5" />
    <trip id="2715" depart="2715.00" from="-14026019#1" to="-14019571#2" />
    <trip id="108" depart="108.00" from="14024694#0" to="14026251#3" />
    <trip id="553" depart="553.00" from="14026251#4" to="683047946#4" />
    <trip id="1528" depart="1528.00" from="-682551442#2" to="-683047946#0" />
    <trip id="526" depart="526.00" from="14019623" to="-683047946#7" />
    <trip id="356" depart="356.00" from="683044783#4" to="14019571#0" />
    <trip id="3375" depart="3375.00" from="-14026676#1" to="-14025222#3" />
    <trip id="1364" depart="1364.00" from="683047942#1" to="-14024694#1" />
    <trip id="1164" depart="1164.00" from="683047946#2" to="-683044783#6" />
    <trip id="1267" depart="1267.00" from="-14027562#3" to="14026059" />
    <trip id="3521" depart="3521.00" from="-14021132#2" to="-14025701#1" />
    <trip id="3197" depart="3197.00" from="-14026937#2" to="-683044783#2" />
    <trip id="327" depart="327.00" from="14027562#0" to="-683043808#0" />
    <trip id="3285" depart="3285.00" from="14026336#5" to="683043814#2" />
    <trip id="3426" depart="3426.00" from="-14026100#2" to="-14026336#5" />
    <trip id="1873" depart="1873.00" from="14024684#1" to="14026096#9" />
    <trip id="109" depart="109.00" from="-14025399" to="-14026676#2" />
    <trip id="354" depart="354.00" from="-14026504#5" to="-14025222#3" />
    <trip id="689" depart="689.00" from="-682551442#5" to="-14019622#1" />
    <trip id="1496" depart="1496.00" from="14026314" to="683047946#4" />
    <trip id="1091" depart="1091.00" from="-14026251#6" to="625743585#1" />
    <trip id="57" depart="57.00" from="682553785" to="682551442#6" />
    <trip id="84" depart="84.00" from="-14026096#7" to="-14025222#7" />
    <trip id="1374" depart="1374.00" from="-14019569#3" to="-683043814#2" />
    <trip id="1875" depart="1875.00" from="14025701#1" to="683044783#2" />
    <trip id="2926" depart="2926.00" from="14026100#4" to="-14026504#7" />
    <trip id="965" depart="965.00" from="14026336#4" to="14025005" />
    <trip id="1485" depart="1485.00" from="683047946#3" to="-14026251#0" />
    <trip id="252" depart="252.00" from="-14019622#0" to="14025635" />
    <trip id="3301" depart="3301.00" from="-14025222#13" to="-14025159#1" />
    <trip id="3262" depart="3262.00" from="14025222#4" to="682553781" />
    <trip id="1595" depart="1595.00" from="-14025708#0" to="682553774#3" />
    <trip id="3177" depart="3177.00" from="-14019571#0" to="682551442#13" />
    <trip id="3460" depart="3460.00" from="-14025708#0" to="-14024684#7" />
    <trip id="3169" depart="3169.00" from="-14026251#9" to="14027562#3" />
    <trip id="2057" depart="2057.00" from="682553786" to="-682551442#0" />
    <trip id="2427" depart="2427.00" from="14026326#1" to="-682551445#2" />
    <trip id="1574" depart="1574.00" from="682551442#5" to="-14025222#8" />
    <trip id="1429" depart="1429.00" from="14025222#5" to="-14026326#2" />
    <trip id="1726" depart="1726.00" from="683044783#4" to="-14025708#2" />
    <trip id="1042" depart="1042.00" from="-682551442#8" to="625743585#0" />
    <trip id="3081" depart="3081.00" from="-14026351" to="14026768#0" />
    <trip id="3120" depart="3120.00" from="-682551442#1" to="-682551442#1" />
    <trip id="909" depart="909.00" from="682553780" to="-14024835#3" />
    <trip id="1298" depart="1298.00" from="-14024835#1" to="-14025159#4" />
    <trip id="3186" depart="3186.00" from="683047939#1" to="683043814#5" />
    <trip id="1860" depart="1860.00" from="-14026937#4" to="683043808#0" />
    <trip id="3348" depart="3348.00" from="-14025222#3" to="682553779#2" />
    <trip id="2241" depart="2241.00" from="-14026504#8" to="14026096#6" />
    <trip id="367" depart="367.00" from="14025159#1" to="14025398#3" />
    <trip id="1275" depart="1275.00" from="683043814#6" to="-14026504#1" />
    <trip id="3291" depart="3291.00" from="-14025398#3" to="682551442#10" />
    <trip id="2732" depart="2732.00" from="683047943#0" to="-14026336#9" />
    <trip id="1317" depart="1317.00" from="14026504#0" to="683047942#1" />
    <trip id="669" depart="669.00" from="14026336#5" to="-683047946#2" />
    <trip id="349" depart="349.00" from="-683043814#6" to="14024684#7" />
    <trip id="95" depart="95.00" from="-683043814#4" to="-14026504#4" />
    <trip id="474" depart="474.00" from="683047946#3" to="682551442#14" />
    <trip id="119" depart="119.00" from="14025159#6" to="14025222#7" />
    <trip id="591" depart="591.00" from="-14024694#2" to="682551442#2" />
    <trip id="3024" depart="3024.00" from="14025159#7" to="14026504#0" />
    <trip id="1154" depart="1154.00" from="-682553774#3" to="14019622#0" />
    <trip id="3055" depart="3055.00" from="-625743592" to="-682551445#2" />
    <trip id="2334" depart="2334.00" from="-14025222#4" to="-14025222#9" />
    <trip id="1864" depart="1864.00" from="-682551442#5" to="14026937#3" />
    <trip id="1706" depart="1706.00" from="-14024835#3" to="14019622#2" />
    <trip id="1287" depart="1287.00" from="-14024694#1" to="-682551446#0" />
    <trip id="1110" depart="1110.00" from="-14025159#6" to="-14019569#2" />
    <trip id="2812" depart="2812.00" from="-14019569#2" to="-14026251#8" />
    <trip id="3509" depart="3509.00" from="14019569#5" to="-683044783#2" />
    <trip id="2492" depart="2492.00" from="14026096#6" to="14025222#3" />
    <trip id="1666" depart="1666.00" from="-14026017" to="14026019#1" />
    <trip id="2417" depart="2417.00" from="-14025222#8" to="-14026096#0" />
    <trip id="209" depart="209.00" from="682551442#0" to="-14024696#0" />
    <trip id="39" depart="39.00" from="-14026336#5" to="-14026326#2" />
    <trip id="3550" depart="3550.00" from="682553777#0" to="-14025222#13" />
    <trip id="3259" depart="3259.00" from="14026019#1" to="-683043814#6" />
    <trip id="3328" depart="3328.00" from="682551442#10" to="-14025894#1" />
    <trip id="55" depart="55.00" from="682551442#9" to="-14026336#8" />
    <trip id="1315" depart="1315.00" from="682551442#14" to="14024835#1" />
    <trip id="1136" depart="1136.00" from="-14026096#0" to="-14027172#0" />
    <trip id="922" depart="922.00" from="683044783#2" to="682551442#1" />
    <trip id="1387" depart="1387.00" from="-14025159#0" to="-14025222#8" />
    <trip id="1855" depart="1855.00" from="14027562#1" to="683050822#0" />
    <trip id="660" depart="660.00" from="625743585#1" to="682551446#0" />
    <trip id="2279" depart="2279.00" from="14025222#8" to="-14026007#1" />
    <trip id="263" depart="263.00" from="683047939#1" to="-14026096#3" />
    <trip id="298" depart="298.00" from="14026096#9" to="-14026504#2" />
    <trip id="3111" depart="3111.00" from="14019571#0" to="-682553774#2" />
    <trip id="1619" depart="1619.00" from="-14026336#3" to="14026100#4" />
    <trip id="75" depart="75.00" from="683270315" to="14025708#1" />
    <trip id="455" depart="455.00" from="14019569#4" to="682553779#2" />
    <trip id="468" depart="468.00" from="14024408#0" to="682553786" />
    <trip id="2978" depart="2978.00" from="-14025222#8" to="-14026019#1" />
    <trip id="1420" depart="1420.00" from="-14025222#3" to="682553780" />
    <trip id="905" depart="905.00" from="-683029995" to="683044783#0" />
    <trip id="3012" depart="3012.00" from="-683270320" to="-625743585#0" />
    <trip id="1717" depart="1717.00" from="-682551442#1" to="-683047942#1" />
    <trip id="2362" depart="2362.00" from="-14025894#0" to="-14026504#6" />
    <trip id="2196" depart="2196.00" from="-14024684#1" to="14024684#2" />
    <trip id="792" depart="792.00" from="-14025398#4" to="-14025894#2" />
    <trip id="3094" depart="3094.00" from="14026336#7" to="14026504#2" />
    <trip id="3172" depart="3172.00" from="-14021132#0" to="-14025708#2" />
    <trip id="351" depart="351.00" from="14027562#3" to="-14024696#0" />