<configuration>
	<input>
		<net-file value="lyons.net.xml"/>
		<route-files value="routes.rou.xml"/>
	</input>
</configuration>
